REMARK  Name = ../refined-set-2016/4o0x/4o0x_pocket.pdb
REMARK  212 active torsions:
REMARK  status: ('A' for Active; 'I' for Inactive)
REMARK    1  A    between atoms: _1  and  _3
REMARK    2  A    between atoms: _3  and  _4
REMARK    3  A    between atoms: _3  and  _6
REMARK    4  A    between atoms: _6  and  _7
REMARK    5  A    between atoms: _7  and  _8
REMARK    6  A    between atoms: _8  and  _9
REMARK    7  A    between atoms: _9  and  _10
REMARK    8  A    between atoms: _14  and  _16
REMARK    9  A    between atoms: _16  and  _17
REMARK   10  A    between atoms: _16  and  _19
REMARK   11  A    between atoms: _19  and  _20
REMARK   12  A    between atoms: _23  and  _25
REMARK   13  A    between atoms: _25  and  _26
REMARK   14  A    between atoms: _28  and  _30
REMARK   15  A    between atoms: _30  and  _31
REMARK   16  A    between atoms: _30  and  _33
REMARK   17  A    between atoms: _33  and  _34
REMARK   18  A    between atoms: _34  and  _35
REMARK   19  A    between atoms: _38  and  _40
REMARK   20  A    between atoms: _40  and  _41
REMARK   21  A    between atoms: _43  and  _45
REMARK   22  A    between atoms: _45  and  _46
REMARK   23  A    between atoms: _45  and  _48
REMARK   24  A    between atoms: _48  and  _49
REMARK   25  A    between atoms: _51  and  _53
REMARK   26  A    between atoms: _53  and  _54
REMARK   27  A    between atoms: _53  and  _56
REMARK   28  A    between atoms: _56  and  _57
REMARK   29  A    between atoms: _60  and  _62
REMARK   30  A    between atoms: _62  and  _63
REMARK   31  A    between atoms: _65  and  _67
REMARK   32  A    between atoms: _67  and  _68
REMARK   33  A    between atoms: _67  and  _70
REMARK   34  A    between atoms: _70  and  _71
REMARK   35  A    between atoms: _74  and  _76
REMARK   36  A    between atoms: _76  and  _77
REMARK   37  A    between atoms: _76  and  _79
REMARK   38  A    between atoms: _82  and  _84
REMARK   39  A    between atoms: _84  and  _85
REMARK   40  A    between atoms: _84  and  _87
REMARK   41  A    between atoms: _89  and  _91
REMARK   42  A    between atoms: _91  and  _92
REMARK   43  A    between atoms: _91  and  _94
REMARK   44  A    between atoms: _94  and  _95
REMARK   45  A    between atoms: _98  and  _100
REMARK   46  A    between atoms: _100  and  _101
REMARK   47  A    between atoms: _100  and  _103
REMARK   48  A    between atoms: _106  and  _108
REMARK   49  A    between atoms: _108  and  _109
REMARK   50  A    between atoms: _112  and  _114
REMARK   51  A    between atoms: _114  and  _115
REMARK   52  A    between atoms: _114  and  _117
REMARK   53  A    between atoms: _120  and  _122
REMARK   54  A    between atoms: _122  and  _123
REMARK   55  A    between atoms: _122  and  _125
REMARK   56  A    between atoms: _125  and  _126
REMARK   57  A    between atoms: _126  and  _127
REMARK   58  A    between atoms: _127  and  _128
REMARK   59  A    between atoms: _128  and  _129
REMARK   60  A    between atoms: _133  and  _135
REMARK   61  A    between atoms: _135  and  _136
REMARK   62  A    between atoms: _135  and  _138
REMARK   63  A    between atoms: _138  and  _139
REMARK   64  A    between atoms: _139  and  _140
REMARK   65  A    between atoms: _140  and  _141
REMARK   66  A    between atoms: _141  and  _142
REMARK   67  A    between atoms: _146  and  _148
REMARK   68  A    between atoms: _148  and  _149
REMARK   69  A    between atoms: _148  and  _151
REMARK   70  A    between atoms: _151  and  _152
REMARK   71  A    between atoms: _152  and  _153
REMARK   72  A    between atoms: _155  and  _157
REMARK   73  A    between atoms: _157  and  _158
REMARK   74  A    between atoms: _157  and  _160
REMARK   75  A    between atoms: _160  and  _161
REMARK   76  A    between atoms: _166  and  _168
REMARK   77  A    between atoms: _168  and  _169
REMARK   78  A    between atoms: _168  and  _171
REMARK   79  A    between atoms: _171  and  _172
REMARK   80  A    between atoms: _172  and  _173
REMARK   81  A    between atoms: _176  and  _178
REMARK   82  A    between atoms: _178  and  _179
REMARK   83  A    between atoms: _178  and  _181
REMARK   84  A    between atoms: _184  and  _186
REMARK   85  A    between atoms: _186  and  _187
REMARK   86  A    between atoms: _186  and  _189
REMARK   87  A    between atoms: _189  and  _190
REMARK   88  A    between atoms: _193  and  _195
REMARK   89  A    between atoms: _195  and  _196
REMARK   90  A    between atoms: _195  and  _198
REMARK   91  A    between atoms: _198  and  _199
REMARK   92  A    between atoms: _199  and  _200
REMARK   93  A    between atoms: _202  and  _204
REMARK   94  A    between atoms: _204  and  _205
REMARK   95  A    between atoms: _204  and  _207
REMARK   96  A    between atoms: _207  and  _208
REMARK   97  A    between atoms: _208  and  _209
REMARK   98  A    between atoms: _209  and  _210
REMARK   99  A    between atoms: _219  and  _221
REMARK  100  A    between atoms: _221  and  _222
REMARK  101  A    between atoms: _221  and  _224
REMARK  102  A    between atoms: _224  and  _225
REMARK  103  A    between atoms: _230  and  _231
REMARK  104  A    between atoms: _233  and  _235
REMARK  105  A    between atoms: _235  and  _236
REMARK  106  A    between atoms: _235  and  _238
REMARK  107  A    between atoms: _241  and  _243
REMARK  108  A    between atoms: _243  and  _244
REMARK  109  A    between atoms: _243  and  _246
REMARK  110  A    between atoms: _249  and  _251
REMARK  111  A    between atoms: _251  and  _252
REMARK  112  A    between atoms: _251  and  _254
REMARK  113  A    between atoms: _254  and  _255
REMARK  114  A    between atoms: _255  and  _256
REMARK  115  A    between atoms: _259  and  _261
REMARK  116  A    between atoms: _261  and  _262
REMARK  117  A    between atoms: _261  and  _264
REMARK  118  A    between atoms: _264  and  _265
REMARK  119  A    between atoms: _265  and  _266
REMARK  120  A    between atoms: _268  and  _270
REMARK  121  A    between atoms: _270  and  _271
REMARK  122  A    between atoms: _270  and  _273
REMARK  123  A    between atoms: _273  and  _274
REMARK  124  A    between atoms: _279  and  _280
REMARK  125  A    between atoms: _282  and  _284
REMARK  126  A    between atoms: _284  and  _285
REMARK  127  A    between atoms: _284  and  _287
REMARK  128  A    between atoms: _287  and  _288
REMARK  129  A    between atoms: _293  and  _295
REMARK  130  A    between atoms: _295  and  _296
REMARK  131  A    between atoms: _295  and  _298
REMARK  132  A    between atoms: _301  and  _303
REMARK  133  A    between atoms: _303  and  _304
REMARK  134  A    between atoms: _303  and  _306
REMARK  135  A    between atoms: _309  and  _311
REMARK  136  A    between atoms: _311  and  _312
REMARK  137  A    between atoms: _311  and  _314
REMARK  138  A    between atoms: _314  and  _315
REMARK  139  A    between atoms: _315  and  _316
REMARK  140  A    between atoms: _318  and  _320
REMARK  141  A    between atoms: _320  and  _321
REMARK  142  A    between atoms: _320  and  _323
REMARK  143  A    between atoms: _323  and  _324
REMARK  144  A    between atoms: _324  and  _325
REMARK  145  A    between atoms: _328  and  _330
REMARK  146  A    between atoms: _330  and  _331
REMARK  147  A    between atoms: _330  and  _333
REMARK  148  A    between atoms: _333  and  _334
REMARK  149  A    between atoms: _340  and  _342
REMARK  150  A    between atoms: _342  and  _343
REMARK  151  A    between atoms: _342  and  _345
REMARK  152  A    between atoms: _345  and  _346
REMARK  153  A    between atoms: _349  and  _351
REMARK  154  A    between atoms: _351  and  _352
REMARK  155  A    between atoms: _351  and  _354
REMARK  156  A    between atoms: _354  and  _355
REMARK  157  A    between atoms: _355  and  _356
REMARK  158  A    between atoms: _359  and  _361
REMARK  159  A    between atoms: _361  and  _362
REMARK  160  A    between atoms: _364  and  _366
REMARK  161  A    between atoms: _366  and  _367
REMARK  162  A    between atoms: _369  and  _371
REMARK  163  A    between atoms: _371  and  _372
REMARK  164  A    between atoms: _375  and  _377
REMARK  165  A    between atoms: _377  and  _378
REMARK  166  A    between atoms: _377  and  _380
REMARK  167  A    between atoms: _380  and  _381
REMARK  168  A    between atoms: _386  and  _388
REMARK  169  A    between atoms: _388  and  _389
REMARK  170  A    between atoms: _388  and  _391
REMARK  171  A    between atoms: _391  and  _392
REMARK  172  A    between atoms: _395  and  _397
REMARK  173  A    between atoms: _397  and  _398
REMARK  174  A    between atoms: _397  and  _400
REMARK  175  A    between atoms: _400  and  _401
REMARK  176  A    between atoms: _403  and  _405
REMARK  177  A    between atoms: _405  and  _406
REMARK  178  A    between atoms: _405  and  _408
REMARK  179  A    between atoms: _408  and  _409
REMARK  180  A    between atoms: _412  and  _414
REMARK  181  A    between atoms: _414  and  _415
REMARK  182  A    between atoms: _414  and  _417
REMARK  183  A    between atoms: _417  and  _418
REMARK  184  A    between atoms: _421  and  _423
REMARK  185  A    between atoms: _423  and  _424
REMARK  186  A    between atoms: _423  and  _426
REMARK  187  A    between atoms: _426  and  _427
REMARK  188  A    between atoms: _430  and  _432
REMARK  189  A    between atoms: _432  and  _433
REMARK  190  A    between atoms: _432  and  _435
REMARK  191  A    between atoms: _435  and  _436
REMARK  192  A    between atoms: _439  and  _441
REMARK  193  A    between atoms: _441  and  _442
REMARK  194  A    between atoms: _441  and  _444
REMARK  195  A    between atoms: _444  and  _445
REMARK  196  A    between atoms: _447  and  _449
REMARK  197  A    between atoms: _449  and  _450
REMARK  198  A    between atoms: _449  and  _452
REMARK  199  A    between atoms: _452  and  _453
REMARK  200  A    between atoms: _456  and  _458
REMARK  201  A    between atoms: _458  and  _459
REMARK  202  A    between atoms: _458  and  _461
REMARK  203  A    between atoms: _461  and  _462
REMARK  204  A    between atoms: _468  and  _470
REMARK  205  A    between atoms: _470  and  _471
REMARK  206  A    between atoms: _473  and  _475
REMARK  207  A    between atoms: _475  and  _476
REMARK  208  A    between atoms: _475  and  _478
REMARK  209  A    between atoms: _478  and  _479
REMARK  210  A    between atoms: _485  and  _487
REMARK  211  A    between atoms: _487  and  _488
REMARK  212  A    between atoms: _487  and  _490
REMARK                            x       y       z     vdW  Elec       q    Type
REMARK                         _______ _______ _______ _____ _____    ______ ____
ROOT
ATOM      1  C   SER A   6     -12.959   5.210  10.965  0.00  0.00    +0.243 C 
ATOM      2  N   THR A   7     -13.020   5.245  12.292  0.00  0.00    -0.295 N 
ATOM      3  H   THR A   7     -13.819   4.789  12.777  0.00  0.00    +0.150 HD
ATOM      4  O   SER A   6     -11.964   5.567  10.332  0.00  0.00    -0.273 OA
ENDROOT
BRANCH   2   5
ATOM      5  CA  THR A   7     -11.990   5.909  13.082  0.00  0.00    +0.176 C 
BRANCH   5   6
ATOM      6  C   THR A   7     -11.214   4.967  14.000  0.00  0.00    +0.243 C 
ATOM      7  O   THR A   7     -10.156   5.325  14.517  0.00  0.00    -0.273 OA
ATOM      8  N   GLY A   8     -11.737   3.763  14.201  0.00  0.00    -0.295 N 
ATOM      9  H   GLY A   8     -12.637   3.513  13.745  0.00  0.00    +0.150 HD
BRANCH   8  10
ATOM     10  CA  GLY A   8     -11.071   2.791  15.048  0.00  0.00    +0.176 C 
BRANCH  10  11
ATOM     11  C   GLY A   8     -11.682   1.413  14.921  0.00  0.00    +0.243 C 
ATOM     12  N   ILE A   9     -11.294   0.500  15.808  0.00  0.00    -0.297 N 
ATOM     13  H   ILE A   9     -10.611   0.762  16.547  0.00  0.00    +0.150 HD
ATOM     14  O   GLY A   8     -12.498   1.177  14.033  0.00  0.00    -0.273 OA
BRANCH  12  15
ATOM     15  CA  ILE A   9     -11.813  -0.866  15.759  0.00  0.00    +0.149 C 
BRANCH  15  16
ATOM     16  C   ILE A   9     -12.972  -1.091  16.726  0.00  0.00    +0.241 C 
ATOM     17  O   ILE A   9     -13.194  -0.311  17.652  0.00  0.00    -0.273 OA
ATOM     18  N   VAL A  10     -13.708  -2.172  16.497  0.00  0.00    -0.297 N 
ATOM     19  H   VAL A  10     -13.429  -2.818  15.731  0.00  0.00    +0.150 HD
BRANCH  18  20
ATOM     20  CA  VAL A  10     -14.892  -2.481  17.284  0.00  0.00    +0.149 C 
BRANCH  20  21
ATOM     21  C   VAL A  10     -14.809  -3.890  17.858  0.00  0.00    +0.241 C 
ATOM     22  N   CYS A  11     -14.898  -3.988  19.178  0.00  0.00    -0.296 N 
ATOM     23  H   CYS A  11     -14.974  -3.120  19.747  0.00  0.00    +0.150 HD
ATOM     24  O   VAL A  10     -14.664  -4.866  17.122  0.00  0.00    -0.273 OA
BRANCH  22  25
ATOM     25  CA  CYS A  11     -14.892  -5.279  19.851  0.00  0.00    +0.160 C 
BRANCH  25  26
ATOM     26  C   CYS A  11     -16.203  -5.462  20.583  0.00  0.00    +0.242 C 
ATOM     27  N   ILE A  12     -16.472  -6.689  21.005  0.00  0.00    -0.298 N 
ATOM     28  H   ILE A  12     -15.919  -7.493  20.645  0.00  0.00    +0.150 HD
ATOM     29  O   CYS A  11     -16.963  -4.510  20.761  0.00  0.00    -0.273 OA
BRANCH  27  30
ATOM     30  CA  ILE A  12     -17.533  -6.917  21.966  0.00  0.00    +0.137 C 
BRANCH  30  31
ATOM     31  C   ILE A  12     -16.922  -7.388  23.266  0.00  0.00    +0.227 C 
ATOM     32  O   ILE A  12     -15.814  -7.925  23.283  0.00  0.00    -0.286 OA
ENDBRANCH  30  31
BRANCH  30  33
ATOM     33  CB  ILE A  12     -18.570  -7.946  21.490  0.00  0.00    +0.026 C 
ATOM     34  CG2 ILE A  12     -19.291  -7.431  20.260  0.00  0.00    +0.002 C 
BRANCH  33  35
ATOM     35  CG1 ILE A  12     -17.909  -9.292  21.211  0.00  0.00    +0.002 C 
ATOM     36  CD1 ILE A  12     -18.887 -10.343  20.757  0.00  0.00    +0.000 C 
ENDBRANCH  33  35
ENDBRANCH  30  33
ENDBRANCH  27  30
ENDBRANCH  25  26
BRANCH  25  37
ATOM     37  CB  CYS A  11     -13.754  -5.349  20.868  0.00  0.00    +0.098 C 
ATOM     38  SG  CYS A  11     -12.125  -5.036  20.197  0.00  0.00    -0.080 S 
ENDBRANCH  25  37
ENDBRANCH  22  25
ENDBRANCH  20  21
BRANCH  20  39
ATOM     39  CB  VAL A  10     -16.173  -2.349  16.429  0.00  0.00    +0.027 C 
ATOM     40  CG2 VAL A  10     -17.401  -2.753  17.233  0.00  0.00    +0.002 C 
ATOM     41  CG1 VAL A  10     -16.311  -0.927  15.899  0.00  0.00    +0.002 C 
ENDBRANCH  20  39
ENDBRANCH  18  20
ENDBRANCH  15  16
BRANCH  15  42
ATOM     42  CB  ILE A   9     -10.715  -1.922  16.019  0.00  0.00    +0.027 C 
ATOM     43  CG2 ILE A   9      -9.459  -1.606  15.219  0.00  0.00    +0.002 C 
BRANCH  42  44
ATOM     44  CG1 ILE A   9     -10.398  -2.026  17.505  0.00  0.00    +0.002 C 
ATOM     45  CD1 ILE A   9      -9.500  -3.189  17.826  0.00  0.00    +0.000 C 
ENDBRANCH  42  44
ENDBRANCH  15  42
ENDBRANCH  12  15
ENDBRANCH  10  11
ENDBRANCH   8  10
ENDBRANCH   5   6
BRANCH   5  46
ATOM     46  CB  THR A   7     -12.598   7.051  13.912  0.00  0.00    +0.137 C 
ATOM     47  CG2 THR A   7     -12.532   8.359  13.141  0.00  0.00    +0.034 C 
BRANCH  46  48
ATOM     48  OG1 THR A   7     -13.972   6.752  14.192  0.00  0.00    -0.382 OA
ATOM     49  HG1 THR A   7     -14.366   7.486  14.727  0.00  0.00    +0.210 HD
ENDBRANCH  46  48
ENDBRANCH   5  46
ENDBRANCH   2   5
BRANCH   1  50
ATOM     50  CA  SER A   6     -14.199   4.676  10.244  0.00  0.00    +0.178 C 
BRANCH  50  52
ATOM     51  C   GLY A   5     -14.098   2.405  11.110  0.00  0.00    +0.243 C 
ATOM     52  N   SER A   6     -14.780   3.531  10.936  0.00  0.00    -0.295 N 
ATOM     53  H   SER A   6     -15.751   3.598  11.302  0.00  0.00    +0.150 HD
ATOM     54  O   GLY A   5     -12.951   2.240  10.688  0.00  0.00    -0.273 OA
BRANCH  51  55
ATOM     55  CA  GLY A   5     -14.808   1.305  11.868  0.00  0.00    +0.176 C 
BRANCH  55  57
ATOM     56  C   GLU A   4     -14.029  -0.948  11.454  0.00  0.00    +0.241 C 
ATOM     57  N   GLY A   5     -13.904   0.198  12.110  0.00  0.00    -0.295 N 
ATOM     58  H   GLY A   5     -13.143   0.304  12.811  0.00  0.00    +0.150 HD
ATOM     59  O   GLU A   4     -14.947  -1.165  10.660  0.00  0.00    -0.273 OA
BRANCH  56  60
ATOM     60  CA  GLU A   4     -12.983  -2.017  11.741  0.00  0.00    +0.149 C 
BRANCH  60  63
ATOM     61  C   GLY A   3     -13.722  -4.009  12.959  0.00  0.00    +0.243 C 
ATOM     62  O   GLY A   3     -13.040  -3.768  13.954  0.00  0.00    -0.273 OA
ATOM     63  N   GLU A   4     -13.687  -3.284  11.846  0.00  0.00    -0.297 N 
ATOM     64  H   GLU A   4     -14.189  -3.641  11.008  0.00  0.00    +0.150 HD
BRANCH  61  65
ATOM     65  CA  GLY A   3     -14.660  -5.194  12.912  0.00  0.00    +0.176 C 
BRANCH  65  67
ATOM     66  C   ILE A   2     -15.596  -7.003  14.178  0.00  0.00    +0.241 C 
ATOM     67  N   GLY A   3     -14.668  -6.062  14.072  0.00  0.00    -0.295 N 
ATOM     68  H   GLY A   3     -13.951  -5.948  14.816  0.00  0.00    +0.150 HD
ATOM     69  O   ILE A   2     -16.493  -7.140  13.355  0.00  0.00    -0.273 OA
BRANCH  66  70
ATOM     70  CA  ILE A   2     -15.533  -7.910  15.386  0.00  0.00    +0.148 C 
BRANCH  70  73
ATOM     71  C   LYS A   1     -13.636  -8.415  16.819  0.00  0.00    +0.238 C 
ATOM     72  O   LYS A   1     -13.645  -9.593  16.482  0.00  0.00    -0.274 OA
ATOM     73  N   ILE A   2     -14.494  -7.522  16.334  0.00  0.00    -0.297 N 
ATOM     74  H   ILE A   2     -14.423  -6.529  16.636  0.00  0.00    +0.150 HD
BRANCH  71  75
ATOM     75  CA  LYS A   1     -12.629  -7.918  17.851  0.00  0.00    +0.145 C 
BRANCH  75  76
ATOM     76  N   LYS A   1     -12.535  -8.861  18.960  0.00  0.00    -0.238 NA
ATOM     77  H   LYS A   1     -11.650  -9.388  19.108  0.00  0.00    +0.142 HD
ENDBRANCH  75  76
BRANCH  75  78
ATOM     78  CB  LYS A   1     -11.257  -7.714  17.208  0.00  0.00    +0.026 C 
BRANCH  78  79
ATOM     79  CG  LYS A   1     -11.272  -6.796  16.004  0.00  0.00    -0.000 C 
BRANCH  79  80
ATOM     80  CD  LYS A   1      -9.890  -6.642  15.397  0.00  0.00    -0.024 C 
BRANCH  80  81
ATOM     81  CE  LYS A   1      -9.948  -5.785  14.145  0.00  0.00    -0.086 C 
BRANCH  81  82
ATOM     82  NZ  LYS A   1      -8.601  -5.588  13.539  0.00  0.00    +0.380 N 
ATOM     83  HZ1 LYS A   1      -7.978  -5.117  14.226  0.00  0.00    -0.089 HD
ATOM     84  HZ2 LYS A   1      -8.199  -6.512  13.282  0.00  0.00    -0.089 HD
ATOM     85  HZ3 LYS A   1      -8.688  -4.997  12.687  0.00  0.00    -0.089 HD
ENDBRANCH  81  82
ENDBRANCH  80  81
ENDBRANCH  79  80
ENDBRANCH  78  79
ENDBRANCH  75  78
ENDBRANCH  71  75
ENDBRANCH  70  73
BRANCH  70  86
ATOM     86  CB  ILE A   2     -16.932  -7.901  16.021  0.00  0.00    +0.027 C 
ATOM     87  CG2 ILE A   2     -17.000  -8.865  17.197  0.00  0.00    +0.002 C 
BRANCH  86  88
ATOM     88  CG1 ILE A   2     -17.311  -6.483  16.449  0.00  0.00    +0.002 C 
ATOM     89  CD1 ILE A   2     -18.778  -6.320  16.755  0.00  0.00    +0.000 C 
ENDBRANCH  86  88
ENDBRANCH  70  86
ENDBRANCH  66  70
ENDBRANCH  65  67
ENDBRANCH  61  65
ENDBRANCH  60  63
BRANCH  60  90
ATOM     90  CB  GLU A   4     -11.974  -2.059  10.595  0.00  0.00    +0.041 C 
BRANCH  90  91
ATOM     91  CG  GLU A   4     -11.175  -3.346  10.514  0.00  0.00    +0.116 C 
BRANCH  91  92
ATOM     92  CD  GLU A   4      -9.797  -3.218  11.127  0.00  0.00    +0.365 C 
ATOM     93  OE2 GLU A   4      -9.154  -4.262  11.372  0.00  0.00    -0.246 OA
ATOM     94  OE1 GLU A   4      -9.353  -2.071  11.353  0.00  0.00    -0.246 OA
ENDBRANCH  91  92
ENDBRANCH  90  91
ENDBRANCH  60  90
ENDBRANCH  56  60
ENDBRANCH  55  57
ENDBRANCH  51  55
ENDBRANCH  50  52
BRANCH  50  95
ATOM     95  CB  SER A   6     -15.239   5.791  10.097  0.00  0.00    +0.166 C 
BRANCH  95  96
ATOM     96  OG  SER A   6     -15.678   6.254  11.365  0.00  0.00    -0.380 OA
ATOM     97  H   SER A   6     -14.905   6.608  11.872  0.00  0.00    +0.211 HD
ENDBRANCH  95  96
ENDBRANCH  50  95
ENDBRANCH   1  50
TORSDOF 44
REMARK  Name = ../refined-set-2016/4o0x/4o0x_pocket.pdb
REMARK  212 active torsions:
REMARK  status: ('A' for Active; 'I' for Inactive)
REMARK    1  A    between atoms: _1  and  _3
REMARK    2  A    between atoms: _3  and  _4
REMARK    3  A    between atoms: _3  and  _6
REMARK    4  A    between atoms: _6  and  _7
REMARK    5  A    between atoms: _7  and  _8
REMARK    6  A    between atoms: _8  and  _9
REMARK    7  A    between atoms: _9  and  _10
REMARK    8  A    between atoms: _14  and  _16
REMARK    9  A    between atoms: _16  and  _17
REMARK   10  A    between atoms: _16  and  _19
REMARK   11  A    between atoms: _19  and  _20
REMARK   12  A    between atoms: _23  and  _25
REMARK   13  A    between atoms: _25  and  _26
REMARK   14  A    between atoms: _28  and  _30
REMARK   15  A    between atoms: _30  and  _31
REMARK   16  A    between atoms: _30  and  _33
REMARK   17  A    between atoms: _33  and  _34
REMARK   18  A    between atoms: _34  and  _35
REMARK   19  A    between atoms: _38  and  _40
REMARK   20  A    between atoms: _40  and  _41
REMARK   21  A    between atoms: _43  and  _45
REMARK   22  A    between atoms: _45  and  _46
REMARK   23  A    between atoms: _45  and  _48
REMARK   24  A    between atoms: _48  and  _49
REMARK   25  A    between atoms: _51  and  _53
REMARK   26  A    between atoms: _53  and  _54
REMARK   27  A    between atoms: _53  and  _56
REMARK   28  A    between atoms: _56  and  _57
REMARK   29  A    between atoms: _60  and  _62
REMARK   30  A    between atoms: _62  and  _63
REMARK   31  A    between atoms: _65  and  _67
REMARK   32  A    between atoms: _67  and  _68
REMARK   33  A    between atoms: _67  and  _70
REMARK   34  A    between atoms: _70  and  _71
REMARK   35  A    between atoms: _74  and  _76
REMARK   36  A    between atoms: _76  and  _77
REMARK   37  A    between atoms: _76  and  _79
REMARK   38  A    between atoms: _82  and  _84
REMARK   39  A    between atoms: _84  and  _85
REMARK   40  A    between atoms: _84  and  _87
REMARK   41  A    between atoms: _89  and  _91
REMARK   42  A    between atoms: _91  and  _92
REMARK   43  A    between atoms: _91  and  _94
REMARK   44  A    between atoms: _94  and  _95
REMARK   45  A    between atoms: _98  and  _100
REMARK   46  A    between atoms: _100  and  _101
REMARK   47  A    between atoms: _100  and  _103
REMARK   48  A    between atoms: _106  and  _108
REMARK   49  A    between atoms: _108  and  _109
REMARK   50  A    between atoms: _112  and  _114
REMARK   51  A    between atoms: _114  and  _115
REMARK   52  A    between atoms: _114  and  _117
REMARK   53  A    between atoms: _120  and  _122
REMARK   54  A    between atoms: _122  and  _123
REMARK   55  A    between atoms: _122  and  _125
REMARK   56  A    between atoms: _125  and  _126
REMARK   57  A    between atoms: _126  and  _127
REMARK   58  A    between atoms: _127  and  _128
REMARK   59  A    between atoms: _128  and  _129
REMARK   60  A    between atoms: _133  and  _135
REMARK   61  A    between atoms: _135  and  _136
REMARK   62  A    between atoms: _135  and  _138
REMARK   63  A    between atoms: _138  and  _139
REMARK   64  A    between atoms: _139  and  _140
REMARK   65  A    between atoms: _140  and  _141
REMARK   66  A    between atoms: _141  and  _142
REMARK   67  A    between atoms: _146  and  _148
REMARK   68  A    between atoms: _148  and  _149
REMARK   69  A    between atoms: _148  and  _151
REMARK   70  A    between atoms: _151  and  _152
REMARK   71  A    between atoms: _152  and  _153
REMARK   72  A    between atoms: _155  and  _157
REMARK   73  A    between atoms: _157  and  _158
REMARK   74  A    between atoms: _157  and  _160
REMARK   75  A    between atoms: _160  and  _161
REMARK   76  A    between atoms: _166  and  _168
REMARK   77  A    between atoms: _168  and  _169
REMARK   78  A    between atoms: _168  and  _171
REMARK   79  A    between atoms: _171  and  _172
REMARK   80  A    between atoms: _172  and  _173
REMARK   81  A    between atoms: _176  and  _178
REMARK   82  A    between atoms: _178  and  _179
REMARK   83  A    between atoms: _178  and  _181
REMARK   84  A    between atoms: _184  and  _186
REMARK   85  A    between atoms: _186  and  _187
REMARK   86  A    between atoms: _186  and  _189
REMARK   87  A    between atoms: _189  and  _190
REMARK   88  A    between atoms: _193  and  _195
REMARK   89  A    between atoms: _195  and  _196
REMARK   90  A    between atoms: _195  and  _198
REMARK   91  A    between atoms: _198  and  _199
REMARK   92  A    between atoms: _199  and  _200
REMARK   93  A    between atoms: _202  and  _204
REMARK   94  A    between atoms: _204  and  _205
REMARK   95  A    between atoms: _204  and  _207
REMARK   96  A    between atoms: _207  and  _208
REMARK   97  A    between atoms: _208  and  _209
REMARK   98  A    between atoms: _209  and  _210
REMARK   99  A    between atoms: _219  and  _221
REMARK  100  A    between atoms: _221  and  _222
REMARK  101  A    between atoms: _221  and  _224
REMARK  102  A    between atoms: _224  and  _225
REMARK  103  A    between atoms: _230  and  _231
REMARK  104  A    between atoms: _233  and  _235
REMARK  105  A    between atoms: _235  and  _236
REMARK  106  A    between atoms: _235  and  _238
REMARK  107  A    between atoms: _241  and  _243
REMARK  108  A    between atoms: _243  and  _244
REMARK  109  A    between atoms: _243  and  _246
REMARK  110  A    between atoms: _249  and  _251
REMARK  111  A    between atoms: _251  and  _252
REMARK  112  A    between atoms: _251  and  _254
REMARK  113  A    between atoms: _254  and  _255
REMARK  114  A    between atoms: _255  and  _256
REMARK  115  A    between atoms: _259  and  _261
REMARK  116  A    between atoms: _261  and  _262
REMARK  117  A    between atoms: _261  and  _264
REMARK  118  A    between atoms: _264  and  _265
REMARK  119  A    between atoms: _265  and  _266
REMARK  120  A    between atoms: _268  and  _270
REMARK  121  A    between atoms: _270  and  _271
REMARK  122  A    between atoms: _270  and  _273
REMARK  123  A    between atoms: _273  and  _274
REMARK  124  A    between atoms: _279  and  _280
REMARK  125  A    between atoms: _282  and  _284
REMARK  126  A    between atoms: _284  and  _285
REMARK  127  A    between atoms: _284  and  _287
REMARK  128  A    between atoms: _287  and  _288
REMARK  129  A    between atoms: _293  and  _295
REMARK  130  A    between atoms: _295  and  _296
REMARK  131  A    between atoms: _295  and  _298
REMARK  132  A    between atoms: _301  and  _303
REMARK  133  A    between atoms: _303  and  _304
REMARK  134  A    between atoms: _303  and  _306
REMARK  135  A    between atoms: _309  and  _311
REMARK  136  A    between atoms: _311  and  _312
REMARK  137  A    between atoms: _311  and  _314
REMARK  138  A    between atoms: _314  and  _315
REMARK  139  A    between atoms: _315  and  _316
REMARK  140  A    between atoms: _318  and  _320
REMARK  141  A    between atoms: _320  and  _321
REMARK  142  A    between atoms: _320  and  _323
REMARK  143  A    between atoms: _323  and  _324
REMARK  144  A    between atoms: _324  and  _325
REMARK  145  A    between atoms: _328  and  _330
REMARK  146  A    between atoms: _330  and  _331
REMARK  147  A    between atoms: _330  and  _333
REMARK  148  A    between atoms: _333  and  _334
REMARK  149  A    between atoms: _340  and  _342
REMARK  150  A    between atoms: _342  and  _343
REMARK  151  A    between atoms: _342  and  _345
REMARK  152  A    between atoms: _345  and  _346
REMARK  153  A    between atoms: _349  and  _351
REMARK  154  A    between atoms: _351  and  _352
REMARK  155  A    between atoms: _351  and  _354
REMARK  156  A    between atoms: _354  and  _355
REMARK  157  A    between atoms: _355  and  _356
REMARK  158  A    between atoms: _359  and  _361
REMARK  159  A    between atoms: _361  and  _362
REMARK  160  A    between atoms: _364  and  _366
REMARK  161  A    between atoms: _366  and  _367
REMARK  162  A    between atoms: _369  and  _371
REMARK  163  A    between atoms: _371  and  _372
REMARK  164  A    between atoms: _375  and  _377
REMARK  165  A    between atoms: _377  and  _378
REMARK  166  A    between atoms: _377  and  _380
REMARK  167  A    between atoms: _380  and  _381
REMARK  168  A    between atoms: _386  and  _388
REMARK  169  A    between atoms: _388  and  _389
REMARK  170  A    between atoms: _388  and  _391
REMARK  171  A    between atoms: _391  and  _392
REMARK  172  A    between atoms: _395  and  _397
REMARK  173  A    between atoms: _397  and  _398
REMARK  174  A    between atoms: _397  and  _400
REMARK  175  A    between atoms: _400  and  _401
REMARK  176  A    between atoms: _403  and  _405
REMARK  177  A    between atoms: _405  and  _406
REMARK  178  A    between atoms: _405  and  _408
REMARK  179  A    between atoms: _408  and  _409
REMARK  180  A    between atoms: _412  and  _414
REMARK  181  A    between atoms: _414  and  _415
REMARK  182  A    between atoms: _414  and  _417
REMARK  183  A    between atoms: _417  and  _418
REMARK  184  A    between atoms: _421  and  _423
REMARK  185  A    between atoms: _423  and  _424
REMARK  186  A    between atoms: _423  and  _426
REMARK  187  A    between atoms: _426  and  _427
REMARK  188  A    between atoms: _430  and  _432
REMARK  189  A    between atoms: _432  and  _433
REMARK  190  A    between atoms: _432  and  _435
REMARK  191  A    between atoms: _435  and  _436
REMARK  192  A    between atoms: _439  and  _441
REMARK  193  A    between atoms: _441  and  _442
REMARK  194  A    between atoms: _441  and  _444
REMARK  195  A    between atoms: _444  and  _445
REMARK  196  A    between atoms: _447  and  _449
REMARK  197  A    between atoms: _449  and  _450
REMARK  198  A    between atoms: _449  and  _452
REMARK  199  A    between atoms: _452  and  _453
REMARK  200  A    between atoms: _456  and  _458
REMARK  201  A    between atoms: _458  and  _459
REMARK  202  A    between atoms: _458  and  _461
REMARK  203  A    between atoms: _461  and  _462
REMARK  204  A    between atoms: _468  and  _470
REMARK  205  A    between atoms: _470  and  _471
REMARK  206  A    between atoms: _473  and  _475
REMARK  207  A    between atoms: _475  and  _476
REMARK  208  A    between atoms: _475  and  _478
REMARK  209  A    between atoms: _478  and  _479
REMARK  210  A    between atoms: _485  and  _487
REMARK  211  A    between atoms: _487  and  _488
REMARK  212  A    between atoms: _487  and  _490
REMARK                            x       y       z     vdW  Elec       q    Type
REMARK                         _______ _______ _______ _____ _____    ______ ____
ROOT
ATOM      1  CA  LYS A   4     -15.599   1.236  19.532  0.00  0.00    +0.149 C 
ENDROOT
BRANCH   1   2
ATOM      2  C   LYS A   4     -14.415   1.968  20.143  0.00  0.00    +0.241 C 
ATOM      3  O   LYS A   4     -14.594   2.867  20.960  0.00  0.00    -0.273 OA
ATOM      4  N   LYS A   5     -13.208   1.580  19.742  0.00  0.00    -0.297 N 
ATOM      5  H   LYS A   5     -13.131   0.821  19.035  0.00  0.00    +0.150 HD
BRANCH   4   6
ATOM      6  CA  LYS A   5     -11.989   2.186  20.264  0.00  0.00    +0.149 C 
BRANCH   6   7
ATOM      7  C   LYS A   5     -11.260   2.981  19.185  0.00  0.00    +0.241 C 
ATOM      8  N   MET A   6     -11.082   4.273  19.427  0.00  0.00    -0.298 N 
ATOM      9  H   MET A   6     -11.405   4.668  20.333  0.00  0.00    +0.150 HD
ATOM     10  O   LYS A   5     -10.855   2.434  18.165  0.00  0.00    -0.273 OA
BRANCH   8  11
ATOM     11  CA  MET A   6     -10.446   5.153  18.457  0.00  0.00    +0.138 C 
BRANCH  11  12
ATOM     12  C   MET A   6      -9.196   5.793  19.036  0.00  0.00    +0.227 C 
ATOM     13  O   MET A   6      -9.262   6.490  20.046  0.00  0.00    -0.286 OA
ENDBRANCH  11  12
BRANCH  11  14
ATOM     14  CB  MET A   6     -11.426   6.234  18.001  0.00  0.00    +0.039 C 
BRANCH  14  15
ATOM     15  CG  MET A   6     -12.631   5.695  17.246  0.00  0.00    +0.060 C 
BRANCH  15  16
ATOM     16  SD  MET A   6     -14.102   6.692  17.533  0.00  0.00    -0.139 S 
ATOM     17  CE  MET A   6     -14.520   6.200  19.201  0.00  0.00    +0.069 C 
ENDBRANCH  15  16
ENDBRANCH  14  15
ENDBRANCH  11  14
ENDBRANCH   8  11
ENDBRANCH   6   7
BRANCH   6  18
ATOM     18  CB  LYS A   5     -11.055   1.118  20.830  0.00  0.00    +0.029 C 
BRANCH  18  19
ATOM     19  CG  LYS A   5     -11.732   0.074  21.694  0.00  0.00    +0.000 C 
BRANCH  19  20
ATOM     20  CD  LYS A   5     -10.851  -1.161  21.825  0.00  0.00    -0.024 C 
BRANCH  20  21
ATOM     21  CE  LYS A   5     -11.653  -2.369  22.266  0.00  0.00    -0.086 C 
BRANCH  21  22
ATOM     22  NZ  LYS A   5     -10.910  -3.637  21.999  0.00  0.00    +0.380 N 
ATOM     23  HZ1 LYS A   5     -10.010  -3.627  22.521  0.00  0.00    -0.089 HD
ATOM     24  HZ2 LYS A   5     -11.484  -4.446  22.311  0.00  0.00    -0.089 HD
ATOM     25  HZ3 LYS A   5     -10.720  -3.718  20.980  0.00  0.00    -0.089 HD
ENDBRANCH  21  22
ENDBRANCH  20  21
ENDBRANCH  19  20
ENDBRANCH  18  19
ENDBRANCH   6  18
ENDBRANCH   4   6
ENDBRANCH   1   2
BRANCH   1  27
ATOM     26  C   VAL A   3     -16.110  -0.689  20.940  0.00  0.00    +0.241 C 
ATOM     27  N   LYS A   4     -16.359   0.566  20.577  0.00  0.00    -0.297 N 
ATOM     28  H   LYS A   4     -17.122   1.086  21.056  0.00  0.00    +0.150 HD
ATOM     29  O   VAL A   3     -15.282  -1.403  20.371  0.00  0.00    -0.273 OA
BRANCH  26  30
ATOM     30  CA  VAL A   3     -16.928  -1.222  22.116  0.00  0.00    +0.149 C 
BRANCH  30  33
ATOM     31  C   ALA A   2     -19.103  -2.272  22.022  0.00  0.00    +0.241 C 
ATOM     32  O   ALA A   2     -19.629  -1.346  22.649  0.00  0.00    -0.273 OA
ATOM     33  N   VAL A   3     -17.818  -2.288  21.698  0.00  0.00    -0.297 N 
ATOM     34  H   VAL A   3     -17.442  -3.077  21.135  0.00  0.00    +0.150 HD
BRANCH  31  35
ATOM     35  CA  ALA A   2     -19.911  -3.482  21.597  0.00  0.00    +0.149 C 
ATOM     36  CB  ALA A   2     -20.514  -3.279  20.217  0.00  0.00    +0.031 C 
BRANCH  35  39
ATOM     37  C   VAL A   1     -20.823  -4.713  23.462  0.00  0.00    +0.238 C 
ATOM     38  O   VAL A   1     -19.912  -5.538  23.412  0.00  0.00    -0.274 OA
ATOM     39  N   ALA A   2     -20.943  -3.722  22.589  0.00  0.00    -0.297 N 
ATOM     40  H   ALA A   2     -21.784  -3.111  22.615  0.00  0.00    +0.150 HD
BRANCH  37  41
ATOM     41  CA  VAL A   1     -21.886  -4.794  24.546  0.00  0.00    +0.145 C 
BRANCH  41  42
ATOM     42  CB  VAL A   1     -21.602  -3.678  25.580  0.00  0.00    +0.025 C 
ATOM     43  CG2 VAL A   1     -22.739  -3.560  26.591  0.00  0.00    +0.002 C 
ATOM     44  CG1 VAL A   1     -20.265  -3.922  26.266  0.00  0.00    +0.002 C 
ENDBRANCH  41  42
BRANCH  41  45
ATOM     45  N   VAL A   1     -21.878  -6.127  25.148  0.00  0.00    -0.238 NA
ATOM     46  H   VAL A   1     -20.969  -6.608  25.301  0.00  0.00    +0.142 HD
ENDBRANCH  41  45
ENDBRANCH  37  41
ENDBRANCH  35  39
ENDBRANCH  31  35
ENDBRANCH  30  33
BRANCH  30  47
ATOM     47  CB  VAL A   3     -15.987  -1.694  23.245  0.00  0.00    +0.027 C 
ATOM     48  CG2 VAL A   3     -16.794  -2.214  24.427  0.00  0.00    +0.002 C 
ATOM     49  CG1 VAL A   3     -15.072  -0.565  23.676  0.00  0.00    +0.002 C 
ENDBRANCH  30  47
ENDBRANCH  26  30
ENDBRANCH   1  27
BRANCH   1  50
ATOM     50  CB  LYS A   4     -16.487   2.224  18.778  0.00  0.00    +0.029 C 
BRANCH  50  51
ATOM     51  CG  LYS A   4     -15.840   2.831  17.539  0.00  0.00    +0.000 C 
BRANCH  51  52
ATOM     52  CD  LYS A   4     -16.726   3.896  16.932  0.00  0.00    -0.024 C 
BRANCH  52  53
ATOM     53  CE  LYS A   4     -16.118   4.444  15.656  0.00  0.00    -0.086 C 
BRANCH  53  54
ATOM     54  NZ  LYS A   4     -16.904   5.593  15.119  0.00  0.00    +0.380 N 
ATOM     55  HZ1 LYS A   4     -16.927   6.356  15.825  0.00  0.00    -0.089 HD
ATOM     56  HZ2 LYS A   4     -17.874   5.281  14.912  0.00  0.00    -0.089 HD
ATOM     57  HZ3 LYS A   4     -16.457   5.940  14.247  0.00  0.00    -0.089 HD
ENDBRANCH  53  54
ENDBRANCH  52  53
ENDBRANCH  51  52
ENDBRANCH  50  51
ENDBRANCH   1  50
TORSDOF 27
REMARK  Name = ../refined-set-2016/4o0x/4o0x_pocket.pdb
REMARK  212 active torsions:
REMARK  status: ('A' for Active; 'I' for Inactive)
REMARK    1  A    between atoms: _1  and  _3
REMARK    2  A    between atoms: _3  and  _4
REMARK    3  A    between atoms: _3  and  _6
REMARK    4  A    between atoms: _6  and  _7
REMARK    5  A    between atoms: _7  and  _8
REMARK    6  A    between atoms: _8  and  _9
REMARK    7  A    between atoms: _9  and  _10
REMARK    8  A    between atoms: _14  and  _16
REMARK    9  A    between atoms: _16  and  _17
REMARK   10  A    between atoms: _16  and  _19
REMARK   11  A    between atoms: _19  and  _20
REMARK   12  A    between atoms: _23  and  _25
REMARK   13  A    between atoms: _25  and  _26
REMARK   14  A    between atoms: _28  and  _30
REMARK   15  A    between atoms: _30  and  _31
REMARK   16  A    between atoms: _30  and  _33
REMARK   17  A    between atoms: _33  and  _34
REMARK   18  A    between atoms: _34  and  _35
REMARK   19  A    between atoms: _38  and  _40
REMARK   20  A    between atoms: _40  and  _41
REMARK   21  A    between atoms: _43  and  _45
REMARK   22  A    between atoms: _45  and  _46
REMARK   23  A    between atoms: _45  and  _48
REMARK   24  A    between atoms: _48  and  _49
REMARK   25  A    between atoms: _51  and  _53
REMARK   26  A    between atoms: _53  and  _54
REMARK   27  A    between atoms: _53  and  _56
REMARK   28  A    between atoms: _56  and  _57
REMARK   29  A    between atoms: _60  and  _62
REMARK   30  A    between atoms: _62  and  _63
REMARK   31  A    between atoms: _65  and  _67
REMARK   32  A    between atoms: _67  and  _68
REMARK   33  A    between atoms: _67  and  _70
REMARK   34  A    between atoms: _70  and  _71
REMARK   35  A    between atoms: _74  and  _76
REMARK   36  A    between atoms: _76  and  _77
REMARK   37  A    between atoms: _76  and  _79
REMARK   38  A    between atoms: _82  and  _84
REMARK   39  A    between atoms: _84  and  _85
REMARK   40  A    between atoms: _84  and  _87
REMARK   41  A    between atoms: _89  and  _91
REMARK   42  A    between atoms: _91  and  _92
REMARK   43  A    between atoms: _91  and  _94
REMARK   44  A    between atoms: _94  and  _95
REMARK   45  A    between atoms: _98  and  _100
REMARK   46  A    between atoms: _100  and  _101
REMARK   47  A    between atoms: _100  and  _103
REMARK   48  A    between atoms: _106  and  _108
REMARK   49  A    between atoms: _108  and  _109
REMARK   50  A    between atoms: _112  and  _114
REMARK   51  A    between atoms: _114  and  _115
REMARK   52  A    between atoms: _114  and  _117
REMARK   53  A    between atoms: _120  and  _122
REMARK   54  A    between atoms: _122  and  _123
REMARK   55  A    between atoms: _122  and  _125
REMARK   56  A    between atoms: _125  and  _126
REMARK   57  A    between atoms: _126  and  _127
REMARK   58  A    between atoms: _127  and  _128
REMARK   59  A    between atoms: _128  and  _129
REMARK   60  A    between atoms: _133  and  _135
REMARK   61  A    between atoms: _135  and  _136
REMARK   62  A    between atoms: _135  and  _138
REMARK   63  A    between atoms: _138  and  _139
REMARK   64  A    between atoms: _139  and  _140
REMARK   65  A    between atoms: _140  and  _141
REMARK   66  A    between atoms: _141  and  _142
REMARK   67  A    between atoms: _146  and  _148
REMARK   68  A    between atoms: _148  and  _149
REMARK   69  A    between atoms: _148  and  _151
REMARK   70  A    between atoms: _151  and  _152
REMARK   71  A    between atoms: _152  and  _153
REMARK   72  A    between atoms: _155  and  _157
REMARK   73  A    between atoms: _157  and  _158
REMARK   74  A    between atoms: _157  and  _160
REMARK   75  A    between atoms: _160  and  _161
REMARK   76  A    between atoms: _166  and  _168
REMARK   77  A    between atoms: _168  and  _169
REMARK   78  A    between atoms: _168  and  _171
REMARK   79  A    between atoms: _171  and  _172
REMARK   80  A    between atoms: _172  and  _173
REMARK   81  A    between atoms: _176  and  _178
REMARK   82  A    between atoms: _178  and  _179
REMARK   83  A    between atoms: _178  and  _181
REMARK   84  A    between atoms: _184  and  _186
REMARK   85  A    between atoms: _186  and  _187
REMARK   86  A    between atoms: _186  and  _189
REMARK   87  A    between atoms: _189  and  _190
REMARK   88  A    between atoms: _193  and  _195
REMARK   89  A    between atoms: _195  and  _196
REMARK   90  A    between atoms: _195  and  _198
REMARK   91  A    between atoms: _198  and  _199
REMARK   92  A    between atoms: _199  and  _200
REMARK   93  A    between atoms: _202  and  _204
REMARK   94  A    between atoms: _204  and  _205
REMARK   95  A    between atoms: _204  and  _207
REMARK   96  A    between atoms: _207  and  _208
REMARK   97  A    between atoms: _208  and  _209
REMARK   98  A    between atoms: _209  and  _210
REMARK   99  A    between atoms: _219  and  _221
REMARK  100  A    between atoms: _221  and  _222
REMARK  101  A    between atoms: _221  and  _224
REMARK  102  A    between atoms: _224  and  _225
REMARK  103  A    between atoms: _230  and  _231
REMARK  104  A    between atoms: _233  and  _235
REMARK  105  A    between atoms: _235  and  _236
REMARK  106  A    between atoms: _235  and  _238
REMARK  107  A    between atoms: _241  and  _243
REMARK  108  A    between atoms: _243  and  _244
REMARK  109  A    between atoms: _243  and  _246
REMARK  110  A    between atoms: _249  and  _251
REMARK  111  A    between atoms: _251  and  _252
REMARK  112  A    between atoms: _251  and  _254
REMARK  113  A    between atoms: _254  and  _255
REMARK  114  A    between atoms: _255  and  _256
REMARK  115  A    between atoms: _259  and  _261
REMARK  116  A    between atoms: _261  and  _262
REMARK  117  A    between atoms: _261  and  _264
REMARK  118  A    between atoms: _264  and  _265
REMARK  119  A    between atoms: _265  and  _266
REMARK  120  A    between atoms: _268  and  _270
REMARK  121  A    between atoms: _270  and  _271
REMARK  122  A    between atoms: _270  and  _273
REMARK  123  A    between atoms: _273  and  _274
REMARK  124  A    between atoms: _279  and  _280
REMARK  125  A    between atoms: _282  and  _284
REMARK  126  A    between atoms: _284  and  _285
REMARK  127  A    between atoms: _284  and  _287
REMARK  128  A    between atoms: _287  and  _288
REMARK  129  A    between atoms: _293  and  _295
REMARK  130  A    between atoms: _295  and  _296
REMARK  131  A    between atoms: _295  and  _298
REMARK  132  A    between atoms: _301  and  _303
REMARK  133  A    between atoms: _303  and  _304
REMARK  134  A    between atoms: _303  and  _306
REMARK  135  A    between atoms: _309  and  _311
REMARK  136  A    between atoms: _311  and  _312
REMARK  137  A    between atoms: _311  and  _314
REMARK  138  A    between atoms: _314  and  _315
REMARK  139  A    between atoms: _315  and  _316
REMARK  140  A    between atoms: _318  and  _320
REMARK  141  A    between atoms: _320  and  _321
REMARK  142  A    between atoms: _320  and  _323
REMARK  143  A    between atoms: _323  and  _324
REMARK  144  A    between atoms: _324  and  _325
REMARK  145  A    between atoms: _328  and  _330
REMARK  146  A    between atoms: _330  and  _331
REMARK  147  A    between atoms: _330  and  _333
REMARK  148  A    between atoms: _333  and  _334
REMARK  149  A    between atoms: _340  and  _342
REMARK  150  A    between atoms: _342  and  _343
REMARK  151  A    between atoms: _342  and  _345
REMARK  152  A    between atoms: _345  and  _346
REMARK  153  A    between atoms: _349  and  _351
REMARK  154  A    between atoms: _351  and  _352
REMARK  155  A    between atoms: _351  and  _354
REMARK  156  A    between atoms: _354  and  _355
REMARK  157  A    between atoms: _355  and  _356
REMARK  158  A    between atoms: _359  and  _361
REMARK  159  A    between atoms: _361  and  _362
REMARK  160  A    between atoms: _364  and  _366
REMARK  161  A    between atoms: _366  and  _367
REMARK  162  A    between atoms: _369  and  _371
REMARK  163  A    between atoms: _371  and  _372
REMARK  164  A    between atoms: _375  and  _377
REMARK  165  A    between atoms: _377  and  _378
REMARK  166  A    between atoms: _377  and  _380
REMARK  167  A    between atoms: _380  and  _381
REMARK  168  A    between atoms: _386  and  _388
REMARK  169  A    between atoms: _388  and  _389
REMARK  170  A    between atoms: _388  and  _391
REMARK  171  A    between atoms: _391  and  _392
REMARK  172  A    between atoms: _395  and  _397
REMARK  173  A    between atoms: _397  and  _398
REMARK  174  A    between atoms: _397  and  _400
REMARK  175  A    between atoms: _400  and  _401
REMARK  176  A    between atoms: _403  and  _405
REMARK  177  A    between atoms: _405  and  _406
REMARK  178  A    between atoms: _405  and  _408
REMARK  179  A    between atoms: _408  and  _409
REMARK  180  A    between atoms: _412  and  _414
REMARK  181  A    between atoms: _414  and  _415
REMARK  182  A    between atoms: _414  and  _417
REMARK  183  A    between atoms: _417  and  _418
REMARK  184  A    between atoms: _421  and  _423
REMARK  185  A    between atoms: _423  and  _424
REMARK  186  A    between atoms: _423  and  _426
REMARK  187  A    between atoms: _426  and  _427
REMARK  188  A    between atoms: _430  and  _432
REMARK  189  A    between atoms: _432  and  _433
REMARK  190  A    between atoms: _432  and  _435
REMARK  191  A    between atoms: _435  and  _436
REMARK  192  A    between atoms: _439  and  _441
REMARK  193  A    between atoms: _441  and  _442
REMARK  194  A    between atoms: _441  and  _444
REMARK  195  A    between atoms: _444  and  _445
REMARK  196  A    between atoms: _447  and  _449
REMARK  197  A    between atoms: _449  and  _450
REMARK  198  A    between atoms: _449  and  _452
REMARK  199  A    between atoms: _452  and  _453
REMARK  200  A    between atoms: _456  and  _458
REMARK  201  A    between atoms: _458  and  _459
REMARK  202  A    between atoms: _458  and  _461
REMARK  203  A    between atoms: _461  and  _462
REMARK  204  A    between atoms: _468  and  _470
REMARK  205  A    between atoms: _470  and  _471
REMARK  206  A    between atoms: _473  and  _475
REMARK  207  A    between atoms: _475  and  _476
REMARK  208  A    between atoms: _475  and  _478
REMARK  209  A    between atoms: _478  and  _479
REMARK  210  A    between atoms: _485  and  _487
REMARK  211  A    between atoms: _487  and  _488
REMARK  212  A    between atoms: _487  and  _490
REMARK                            x       y       z     vdW  Elec       q    Type
REMARK                         _______ _______ _______ _____ _____    ______ ____
ROOT
ATOM      1  CA  GLU A   2     -20.488  10.675  18.328  0.00  0.00    +0.149 C 
ENDROOT
BRANCH   1   4
ATOM      2  C   ASN A   1     -20.094  12.921  17.521  0.00  0.00    +0.239 C 
ATOM      3  O   ASN A   1     -21.134  13.320  18.014  0.00  0.00    -0.274 OA
ATOM      4  N   GLU A   2     -19.684  11.666  17.630  0.00  0.00    -0.297 N 
ATOM      5  H   GLU A   2     -18.775  11.385  17.211  0.00  0.00    +0.150 HD
BRANCH   2   6
ATOM      6  CA  ASN A   1     -19.196  13.868  16.753  0.00  0.00    +0.154 C 
BRANCH   6   7
ATOM      7  N   ASN A   1     -17.894  14.074  17.380  0.00  0.00    -0.238 NA
ATOM      8  H   ASN A   1     -17.033  13.910  16.821  0.00  0.00    +0.142 HD
ENDBRANCH   6   7
BRANCH   6   9
ATOM      9  CB  ASN A   1     -19.035  13.382  15.315  0.00  0.00    +0.111 C 
BRANCH   9  10
ATOM     10  CG  ASN A   1     -18.333  14.398  14.442  0.00  0.00    +0.221 C 
ATOM     11  ND2 ASN A   1     -18.492  15.680  14.778  0.00  0.00    -0.329 N 
ATOM     12 HD21 ASN A   1     -19.080  15.934  15.598  0.00  0.00    +0.145 HD
ATOM     13 HD22 ASN A   1     -18.028  16.425  14.220  0.00  0.00    +0.145 HD
ATOM     14  OD1 ASN A   1     -17.649  14.040  13.482  0.00  0.00    -0.275 OA
ENDBRANCH   9  10
ENDBRANCH   6   9
ENDBRANCH   2   6
ENDBRANCH   1   4
BRANCH   1  15
ATOM     15  C   GLU A   2     -20.692  11.062  19.789  0.00  0.00    +0.241 C 
ATOM     16  N   VAL A   3     -19.624  11.455  20.469  0.00  0.00    -0.298 N 
ATOM     17  H   VAL A   3     -18.711  11.574  19.986  0.00  0.00    +0.150 HD
ATOM     18  O   GLU A   2     -21.808  11.025  20.293  0.00  0.00    -0.273 OA
BRANCH  16  19
ATOM     19  CA  VAL A   3     -19.738  11.720  21.900  0.00  0.00    +0.137 C 
BRANCH  19  20
ATOM     20  CB  VAL A   3     -18.361  11.712  22.605  0.00  0.00    +0.026 C 
ATOM     21  CG2 VAL A   3     -17.726  10.342  22.487  0.00  0.00    +0.002 C 
ATOM     22  CG1 VAL A   3     -17.452  12.773  22.006  0.00  0.00    +0.002 C 
ENDBRANCH  19  20
BRANCH  19  23
ATOM     23  C   VAL A   3     -20.510  13.002  22.228  0.00  0.00    +0.227 C 
ATOM     24  O   VAL A   3     -21.242  13.047  23.216  0.00  0.00    -0.286 OA
ENDBRANCH  19  23
ENDBRANCH  16  19
ENDBRANCH   1  15
BRANCH   1  25
ATOM     25  CB  GLU A   2     -19.846   9.288  18.225  0.00  0.00    +0.041 C 
BRANCH  25  26
ATOM     26  CG  GLU A   2     -19.864   8.694  16.833  0.00  0.00    +0.116 C 
BRANCH  26  27
ATOM     27  CD  GLU A   2     -18.796   7.635  16.645  0.00  0.00    +0.365 C 
ATOM     28  OE2 GLU A   2     -17.697   7.806  17.211  0.00  0.00    -0.246 OA
ATOM     29  OE1 GLU A   2     -19.052   6.633  15.942  0.00  0.00    -0.246 OA
ENDBRANCH  26  27
ENDBRANCH  25  26
ENDBRANCH   1  25
TORSDOF 12
REMARK  Name = ../refined-set-2016/4o0x/4o0x_pocket.pdb
REMARK  212 active torsions:
REMARK  status: ('A' for Active; 'I' for Inactive)
REMARK    1  A    between atoms: _1  and  _3
REMARK    2  A    between atoms: _3  and  _4
REMARK    3  A    between atoms: _3  and  _6
REMARK    4  A    between atoms: _6  and  _7
REMARK    5  A    between atoms: _7  and  _8
REMARK    6  A    between atoms: _8  and  _9
REMARK    7  A    between atoms: _9  and  _10
REMARK    8  A    between atoms: _14  and  _16
REMARK    9  A    between atoms: _16  and  _17
REMARK   10  A    between atoms: _16  and  _19
REMARK   11  A    between atoms: _19  and  _20
REMARK   12  A    between atoms: _23  and  _25
REMARK   13  A    between atoms: _25  and  _26
REMARK   14  A    between atoms: _28  and  _30
REMARK   15  A    between atoms: _30  and  _31
REMARK   16  A    between atoms: _30  and  _33
REMARK   17  A    between atoms: _33  and  _34
REMARK   18  A    between atoms: _34  and  _35
REMARK   19  A    between atoms: _38  and  _40
REMARK   20  A    between atoms: _40  and  _41
REMARK   21  A    between atoms: _43  and  _45
REMARK   22  A    between atoms: _45  and  _46
REMARK   23  A    between atoms: _45  and  _48
REMARK   24  A    between atoms: _48  and  _49
REMARK   25  A    between atoms: _51  and  _53
REMARK   26  A    between atoms: _53  and  _54
REMARK   27  A    between atoms: _53  and  _56
REMARK   28  A    between atoms: _56  and  _57
REMARK   29  A    between atoms: _60  and  _62
REMARK   30  A    between atoms: _62  and  _63
REMARK   31  A    between atoms: _65  and  _67
REMARK   32  A    between atoms: _67  and  _68
REMARK   33  A    between atoms: _67  and  _70
REMARK   34  A    between atoms: _70  and  _71
REMARK   35  A    between atoms: _74  and  _76
REMARK   36  A    between atoms: _76  and  _77
REMARK   37  A    between atoms: _76  and  _79
REMARK   38  A    between atoms: _82  and  _84
REMARK   39  A    between atoms: _84  and  _85
REMARK   40  A    between atoms: _84  and  _87
REMARK   41  A    between atoms: _89  and  _91
REMARK   42  A    between atoms: _91  and  _92
REMARK   43  A    between atoms: _91  and  _94
REMARK   44  A    between atoms: _94  and  _95
REMARK   45  A    between atoms: _98  and  _100
REMARK   46  A    between atoms: _100  and  _101
REMARK   47  A    between atoms: _100  and  _103
REMARK   48  A    between atoms: _106  and  _108
REMARK   49  A    between atoms: _108  and  _109
REMARK   50  A    between atoms: _112  and  _114
REMARK   51  A    between atoms: _114  and  _115
REMARK   52  A    between atoms: _114  and  _117
REMARK   53  A    between atoms: _120  and  _122
REMARK   54  A    between atoms: _122  and  _123
REMARK   55  A    between atoms: _122  and  _125
REMARK   56  A    between atoms: _125  and  _126
REMARK   57  A    between atoms: _126  and  _127
REMARK   58  A    between atoms: _127  and  _128
REMARK   59  A    between atoms: _128  and  _129
REMARK   60  A    between atoms: _133  and  _135
REMARK   61  A    between atoms: _135  and  _136
REMARK   62  A    between atoms: _135  and  _138
REMARK   63  A    between atoms: _138  and  _139
REMARK   64  A    between atoms: _139  and  _140
REMARK   65  A    between atoms: _140  and  _141
REMARK   66  A    between atoms: _141  and  _142
REMARK   67  A    between atoms: _146  and  _148
REMARK   68  A    between atoms: _148  and  _149
REMARK   69  A    between atoms: _148  and  _151
REMARK   70  A    between atoms: _151  and  _152
REMARK   71  A    between atoms: _152  and  _153
REMARK   72  A    between atoms: _155  and  _157
REMARK   73  A    between atoms: _157  and  _158
REMARK   74  A    between atoms: _157  and  _160
REMARK   75  A    between atoms: _160  and  _161
REMARK   76  A    between atoms: _166  and  _168
REMARK   77  A    between atoms: _168  and  _169
REMARK   78  A    between atoms: _168  and  _171
REMARK   79  A    between atoms: _171  and  _172
REMARK   80  A    between atoms: _172  and  _173
REMARK   81  A    between atoms: _176  and  _178
REMARK   82  A    between atoms: _178  and  _179
REMARK   83  A    between atoms: _178  and  _181
REMARK   84  A    between atoms: _184  and  _186
REMARK   85  A    between atoms: _186  and  _187
REMARK   86  A    between atoms: _186  and  _189
REMARK   87  A    between atoms: _189  and  _190
REMARK   88  A    between atoms: _193  and  _195
REMARK   89  A    between atoms: _195  and  _196
REMARK   90  A    between atoms: _195  and  _198
REMARK   91  A    between atoms: _198  and  _199
REMARK   92  A    between atoms: _199  and  _200
REMARK   93  A    between atoms: _202  and  _204
REMARK   94  A    between atoms: _204  and  _205
REMARK   95  A    between atoms: _204  and  _207
REMARK   96  A    between atoms: _207  and  _208
REMARK   97  A    between atoms: _208  and  _209
REMARK   98  A    between atoms: _209  and  _210
REMARK   99  A    between atoms: _219  and  _221
REMARK  100  A    between atoms: _221  and  _222
REMARK  101  A    between atoms: _221  and  _224
REMARK  102  A    between atoms: _224  and  _225
REMARK  103  A    between atoms: _230  and  _231
REMARK  104  A    between atoms: _233  and  _235
REMARK  105  A    between atoms: _235  and  _236
REMARK  106  A    between atoms: _235  and  _238
REMARK  107  A    between atoms: _241  and  _243
REMARK  108  A    between atoms: _243  and  _244
REMARK  109  A    between atoms: _243  and  _246
REMARK  110  A    between atoms: _249  and  _251
REMARK  111  A    between atoms: _251  and  _252
REMARK  112  A    between atoms: _251  and  _254
REMARK  113  A    between atoms: _254  and  _255
REMARK  114  A    between atoms: _255  and  _256
REMARK  115  A    between atoms: _259  and  _261
REMARK  116  A    between atoms: _261  and  _262
REMARK  117  A    between atoms: _261  and  _264
REMARK  118  A    between atoms: _264  and  _265
REMARK  119  A    between atoms: _265  and  _266
REMARK  120  A    between atoms: _268  and  _270
REMARK  121  A    between atoms: _270  and  _271
REMARK  122  A    between atoms: _270  and  _273
REMARK  123  A    between atoms: _273  and  _274
REMARK  124  A    between atoms: _279  and  _280
REMARK  125  A    between atoms: _282  and  _284
REMARK  126  A    between atoms: _284  and  _285
REMARK  127  A    between atoms: _284  and  _287
REMARK  128  A    between atoms: _287  and  _288
REMARK  129  A    between atoms: _293  and  _295
REMARK  130  A    between atoms: _295  and  _296
REMARK  131  A    between atoms: _295  and  _298
REMARK  132  A    between atoms: _301  and  _303
REMARK  133  A    between atoms: _303  and  _304
REMARK  134  A    between atoms: _303  and  _306
REMARK  135  A    between atoms: _309  and  _311
REMARK  136  A    between atoms: _311  and  _312
REMARK  137  A    between atoms: _311  and  _314
REMARK  138  A    between atoms: _314  and  _315
REMARK  139  A    between atoms: _315  and  _316
REMARK  140  A    between atoms: _318  and  _320
REMARK  141  A    between atoms: _320  and  _321
REMARK  142  A    between atoms: _320  and  _323
REMARK  143  A    between atoms: _323  and  _324
REMARK  144  A    between atoms: _324  and  _325
REMARK  145  A    between atoms: _328  and  _330
REMARK  146  A    between atoms: _330  and  _331
REMARK  147  A    between atoms: _330  and  _333
REMARK  148  A    between atoms: _333  and  _334
REMARK  149  A    between atoms: _340  and  _342
REMARK  150  A    between atoms: _342  and  _343
REMARK  151  A    between atoms: _342  and  _345
REMARK  152  A    between atoms: _345  and  _346
REMARK  153  A    between atoms: _349  and  _351
REMARK  154  A    between atoms: _351  and  _352
REMARK  155  A    between atoms: _351  and  _354
REMARK  156  A    between atoms: _354  and  _355
REMARK  157  A    between atoms: _355  and  _356
REMARK  158  A    between atoms: _359  and  _361
REMARK  159  A    between atoms: _361  and  _362
REMARK  160  A    between atoms: _364  and  _366
REMARK  161  A    between atoms: _366  and  _367
REMARK  162  A    between atoms: _369  and  _371
REMARK  163  A    between atoms: _371  and  _372
REMARK  164  A    between atoms: _375  and  _377
REMARK  165  A    between atoms: _377  and  _378
REMARK  166  A    between atoms: _377  and  _380
REMARK  167  A    between atoms: _380  and  _381
REMARK  168  A    between atoms: _386  and  _388
REMARK  169  A    between atoms: _388  and  _389
REMARK  170  A    between atoms: _388  and  _391
REMARK  171  A    between atoms: _391  and  _392
REMARK  172  A    between atoms: _395  and  _397
REMARK  173  A    between atoms: _397  and  _398
REMARK  174  A    between atoms: _397  and  _400
REMARK  175  A    between atoms: _400  and  _401
REMARK  176  A    between atoms: _403  and  _405
REMARK  177  A    between atoms: _405  and  _406
REMARK  178  A    between atoms: _405  and  _408
REMARK  179  A    between atoms: _408  and  _409
REMARK  180  A    between atoms: _412  and  _414
REMARK  181  A    between atoms: _414  and  _415
REMARK  182  A    between atoms: _414  and  _417
REMARK  183  A    between atoms: _417  and  _418
REMARK  184  A    between atoms: _421  and  _423
REMARK  185  A    between atoms: _423  and  _424
REMARK  186  A    between atoms: _423  and  _426
REMARK  187  A    between atoms: _426  and  _427
REMARK  188  A    between atoms: _430  and  _432
REMARK  189  A    between atoms: _432  and  _433
REMARK  190  A    between atoms: _432  and  _435
REMARK  191  A    between atoms: _435  and  _436
REMARK  192  A    between atoms: _439  and  _441
REMARK  193  A    between atoms: _441  and  _442
REMARK  194  A    between atoms: _441  and  _444
REMARK  195  A    between atoms: _444  and  _445
REMARK  196  A    between atoms: _447  and  _449
REMARK  197  A    between atoms: _449  and  _450
REMARK  198  A    between atoms: _449  and  _452
REMARK  199  A    between atoms: _452  and  _453
REMARK  200  A    between atoms: _456  and  _458
REMARK  201  A    between atoms: _458  and  _459
REMARK  202  A    between atoms: _458  and  _461
REMARK  203  A    between atoms: _461  and  _462
REMARK  204  A    between atoms: _468  and  _470
REMARK  205  A    between atoms: _470  and  _471
REMARK  206  A    between atoms: _473  and  _475
REMARK  207  A    between atoms: _475  and  _476
REMARK  208  A    between atoms: _475  and  _478
REMARK  209  A    between atoms: _478  and  _479
REMARK  210  A    between atoms: _485  and  _487
REMARK  211  A    between atoms: _487  and  _488
REMARK  212  A    between atoms: _487  and  _490
REMARK                            x       y       z     vdW  Elec       q    Type
REMARK                         _______ _______ _______ _____ _____    ______ ____
ROOT
ATOM      1  C   MET A   2     -25.166  10.750  21.199  0.00  0.00    +0.241 C 
ATOM      2  N   ARG A   3     -24.448  11.356  22.138  0.00  0.00    -0.298 N 
ATOM      3  H   ARG A   3     -23.894  12.194  21.868  0.00  0.00    +0.150 HD
ATOM      4  O   MET A   2     -25.927   9.810  21.427  0.00  0.00    -0.273 OA
ENDROOT
BRANCH   1   5
ATOM      5  CA  MET A   2     -24.994  11.281  19.777  0.00  0.00    +0.149 C 
BRANCH   5   7
ATOM      6  C   ILE A   1     -24.756  13.666  19.379  0.00  0.00    +0.238 C 
ATOM      7  N   MET A   2     -24.182  12.496  19.637  0.00  0.00    -0.297 N 
ATOM      8  H   MET A   2     -23.149  12.440  19.741  0.00  0.00    +0.150 HD
ATOM      9  O   ILE A   1     -25.968  13.823  19.441  0.00  0.00    -0.274 OA
BRANCH   6  10
ATOM     10  CA  ILE A   1     -23.842  14.840  19.012  0.00  0.00    +0.145 C 
BRANCH  10  11
ATOM     11  N   ILE A   1     -22.570  14.873  19.731  0.00  0.00    -0.238 NA
ATOM     12  H   ILE A   1     -21.689  14.684  19.211  0.00  0.00    +0.142 HD
ENDBRANCH  10  11
BRANCH  10  13
ATOM     13  CB  ILE A   1     -23.612  14.854  17.484  0.00  0.00    +0.025 C 
ATOM     14  CG2 ILE A   1     -24.921  14.999  16.742  0.00  0.00    +0.002 C 
BRANCH  13  15
ATOM     15  CG1 ILE A   1     -22.623  15.969  17.116  0.00  0.00    +0.002 C 
ATOM     16  CD1 ILE A   1     -22.176  15.948  15.668  0.00  0.00    +0.000 C 
ENDBRANCH  13  15
ENDBRANCH  10  13
ENDBRANCH   6  10
ENDBRANCH   5   7
BRANCH   5  17
ATOM     17  CB  MET A   2     -24.426  10.167  18.896  0.00  0.00    +0.041 C 
BRANCH  17  18
ATOM     18  CG  MET A   2     -24.331  10.525  17.429  0.00  0.00    +0.060 C 
BRANCH  18  19
ATOM     19  SD  MET A   2     -25.927  10.954  16.710  0.00  0.00    -0.139 S 
ATOM     20  CE  MET A   2     -26.868   9.457  17.012  0.00  0.00    +0.069 C 
ENDBRANCH  18  19
ENDBRANCH  17  18
ENDBRANCH   5  17
ENDBRANCH   1   5
BRANCH   2  21
ATOM     21  CA  ARG A   3     -24.393  10.910  23.532  0.00  0.00    +0.137 C 
BRANCH  21  22
ATOM     22  C   ARG A   3     -25.713  10.496  24.173  0.00  0.00    +0.227 C 
ATOM     23  O   ARG A   3     -25.771   9.501  24.888  0.00  0.00    -0.286 OA
ENDBRANCH  21  22
BRANCH  21  24
ATOM     24  CB  ARG A   3     -23.734  11.979  24.407  0.00  0.00    +0.031 C 
BRANCH  24  25
ATOM     25  CG  ARG A   3     -24.274  12.036  25.830  0.00  0.00    +0.045 C 
BRANCH  25  26
ATOM     26  CD  ARG A   3     -23.333  12.790  26.763  0.00  0.00    +0.174 C 
BRANCH  26  27
ATOM     27  NE  ARG A   3     -22.686  13.938  26.127  0.00  0.00    -0.265 N 
ATOM     28  CZ  ARG A   3     -21.986  14.856  26.788  0.00  0.00    +0.342 C 
ATOM     29  NH2 ARG A   3     -21.855  14.770  28.106  0.00  0.00    -0.292 N 
ATOM     30 HH21 ARG A   3     -22.300  13.985  28.623  0.00  0.00    +0.255 HD
ATOM     31 HH22 ARG A   3     -21.308  15.488  28.622  0.00  0.00    +0.255 HD
ATOM     32  NH1 ARG A   3     -21.423  15.864  26.136  0.00  0.00    -0.292 N 
ATOM     33 HH11 ARG A   3     -20.877  16.580  26.657  0.00  0.00    +0.255 HD
ATOM     34 HH12 ARG A   3     -21.528  15.939  25.104  0.00  0.00    +0.255 HD
ATOM     35  HE  ARG A   3     -22.779  14.043  25.096  0.00  0.00    +0.259 HD
ENDBRANCH  26  27
ENDBRANCH  25  26
ENDBRANCH  24  25
ENDBRANCH  21  24
ENDBRANCH   2  21
TORSDOF 15
REMARK  Name = ../refined-set-2016/4o0x/4o0x_pocket.pdb
REMARK  212 active torsions:
REMARK  status: ('A' for Active; 'I' for Inactive)
REMARK    1  A    between atoms: _1  and  _3
REMARK    2  A    between atoms: _3  and  _4
REMARK    3  A    between atoms: _3  and  _6
REMARK    4  A    between atoms: _6  and  _7
REMARK    5  A    between atoms: _7  and  _8
REMARK    6  A    between atoms: _8  and  _9
REMARK    7  A    between atoms: _9  and  _10
REMARK    8  A    between atoms: _14  and  _16
REMARK    9  A    between atoms: _16  and  _17
REMARK   10  A    between atoms: _16  and  _19
REMARK   11  A    between atoms: _19  and  _20
REMARK   12  A    between atoms: _23  and  _25
REMARK   13  A    between atoms: _25  and  _26
REMARK   14  A    between atoms: _28  and  _30
REMARK   15  A    between atoms: _30  and  _31
REMARK   16  A    between atoms: _30  and  _33
REMARK   17  A    between atoms: _33  and  _34
REMARK   18  A    between atoms: _34  and  _35
REMARK   19  A    between atoms: _38  and  _40
REMARK   20  A    between atoms: _40  and  _41
REMARK   21  A    between atoms: _43  and  _45
REMARK   22  A    between atoms: _45  and  _46
REMARK   23  A    between atoms: _45  and  _48
REMARK   24  A    between atoms: _48  and  _49
REMARK   25  A    between atoms: _51  and  _53
REMARK   26  A    between atoms: _53  and  _54
REMARK   27  A    between atoms: _53  and  _56
REMARK   28  A    between atoms: _56  and  _57
REMARK   29  A    between atoms: _60  and  _62
REMARK   30  A    between atoms: _62  and  _63
REMARK   31  A    between atoms: _65  and  _67
REMARK   32  A    between atoms: _67  and  _68
REMARK   33  A    between atoms: _67  and  _70
REMARK   34  A    between atoms: _70  and  _71
REMARK   35  A    between atoms: _74  and  _76
REMARK   36  A    between atoms: _76  and  _77
REMARK   37  A    between atoms: _76  and  _79
REMARK   38  A    between atoms: _82  and  _84
REMARK   39  A    between atoms: _84  and  _85
REMARK   40  A    between atoms: _84  and  _87
REMARK   41  A    between atoms: _89  and  _91
REMARK   42  A    between atoms: _91  and  _92
REMARK   43  A    between atoms: _91  and  _94
REMARK   44  A    between atoms: _94  and  _95
REMARK   45  A    between atoms: _98  and  _100
REMARK   46  A    between atoms: _100  and  _101
REMARK   47  A    between atoms: _100  and  _103
REMARK   48  A    between atoms: _106  and  _108
REMARK   49  A    between atoms: _108  and  _109
REMARK   50  A    between atoms: _112  and  _114
REMARK   51  A    between atoms: _114  and  _115
REMARK   52  A    between atoms: _114  and  _117
REMARK   53  A    between atoms: _120  and  _122
REMARK   54  A    between atoms: _122  and  _123
REMARK   55  A    between atoms: _122  and  _125
REMARK   56  A    between atoms: _125  and  _126
REMARK   57  A    between atoms: _126  and  _127
REMARK   58  A    between atoms: _127  and  _128
REMARK   59  A    between atoms: _128  and  _129
REMARK   60  A    between atoms: _133  and  _135
REMARK   61  A    between atoms: _135  and  _136
REMARK   62  A    between atoms: _135  and  _138
REMARK   63  A    between atoms: _138  and  _139
REMARK   64  A    between atoms: _139  and  _140
REMARK   65  A    between atoms: _140  and  _141
REMARK   66  A    between atoms: _141  and  _142
REMARK   67  A    between atoms: _146  and  _148
REMARK   68  A    between atoms: _148  and  _149
REMARK   69  A    between atoms: _148  and  _151
REMARK   70  A    between atoms: _151  and  _152
REMARK   71  A    between atoms: _152  and  _153
REMARK   72  A    between atoms: _155  and  _157
REMARK   73  A    between atoms: _157  and  _158
REMARK   74  A    between atoms: _157  and  _160
REMARK   75  A    between atoms: _160  and  _161
REMARK   76  A    between atoms: _166  and  _168
REMARK   77  A    between atoms: _168  and  _169
REMARK   78  A    between atoms: _168  and  _171
REMARK   79  A    between atoms: _171  and  _172
REMARK   80  A    between atoms: _172  and  _173
REMARK   81  A    between atoms: _176  and  _178
REMARK   82  A    between atoms: _178  and  _179
REMARK   83  A    between atoms: _178  and  _181
REMARK   84  A    between atoms: _184  and  _186
REMARK   85  A    between atoms: _186  and  _187
REMARK   86  A    between atoms: _186  and  _189
REMARK   87  A    between atoms: _189  and  _190
REMARK   88  A    between atoms: _193  and  _195
REMARK   89  A    between atoms: _195  and  _196
REMARK   90  A    between atoms: _195  and  _198
REMARK   91  A    between atoms: _198  and  _199
REMARK   92  A    between atoms: _199  and  _200
REMARK   93  A    between atoms: _202  and  _204
REMARK   94  A    between atoms: _204  and  _205
REMARK   95  A    between atoms: _204  and  _207
REMARK   96  A    between atoms: _207  and  _208
REMARK   97  A    between atoms: _208  and  _209
REMARK   98  A    between atoms: _209  and  _210
REMARK   99  A    between atoms: _219  and  _221
REMARK  100  A    between atoms: _221  and  _222
REMARK  101  A    between atoms: _221  and  _224
REMARK  102  A    between atoms: _224  and  _225
REMARK  103  A    between atoms: _230  and  _231
REMARK  104  A    between atoms: _233  and  _235
REMARK  105  A    between atoms: _235  and  _236
REMARK  106  A    between atoms: _235  and  _238
REMARK  107  A    between atoms: _241  and  _243
REMARK  108  A    between atoms: _243  and  _244
REMARK  109  A    between atoms: _243  and  _246
REMARK  110  A    between atoms: _249  and  _251
REMARK  111  A    between atoms: _251  and  _252
REMARK  112  A    between atoms: _251  and  _254
REMARK  113  A    between atoms: _254  and  _255
REMARK  114  A    between atoms: _255  and  _256
REMARK  115  A    between atoms: _259  and  _261
REMARK  116  A    between atoms: _261  and  _262
REMARK  117  A    between atoms: _261  and  _264
REMARK  118  A    between atoms: _264  and  _265
REMARK  119  A    between atoms: _265  and  _266
REMARK  120  A    between atoms: _268  and  _270
REMARK  121  A    between atoms: _270  and  _271
REMARK  122  A    between atoms: _270  and  _273
REMARK  123  A    between atoms: _273  and  _274
REMARK  124  A    between atoms: _279  and  _280
REMARK  125  A    between atoms: _282  and  _284
REMARK  126  A    between atoms: _284  and  _285
REMARK  127  A    between atoms: _284  and  _287
REMARK  128  A    between atoms: _287  and  _288
REMARK  129  A    between atoms: _293  and  _295
REMARK  130  A    between atoms: _295  and  _296
REMARK  131  A    between atoms: _295  and  _298
REMARK  132  A    between atoms: _301  and  _303
REMARK  133  A    between atoms: _303  and  _304
REMARK  134  A    between atoms: _303  and  _306
REMARK  135  A    between atoms: _309  and  _311
REMARK  136  A    between atoms: _311  and  _312
REMARK  137  A    between atoms: _311  and  _314
REMARK  138  A    between atoms: _314  and  _315
REMARK  139  A    between atoms: _315  and  _316
REMARK  140  A    between atoms: _318  and  _320
REMARK  141  A    between atoms: _320  and  _321
REMARK  142  A    between atoms: _320  and  _323
REMARK  143  A    between atoms: _323  and  _324
REMARK  144  A    between atoms: _324  and  _325
REMARK  145  A    between atoms: _328  and  _330
REMARK  146  A    between atoms: _330  and  _331
REMARK  147  A    between atoms: _330  and  _333
REMARK  148  A    between atoms: _333  and  _334
REMARK  149  A    between atoms: _340  and  _342
REMARK  150  A    between atoms: _342  and  _343
REMARK  151  A    between atoms: _342  and  _345
REMARK  152  A    between atoms: _345  and  _346
REMARK  153  A    between atoms: _349  and  _351
REMARK  154  A    between atoms: _351  and  _352
REMARK  155  A    between atoms: _351  and  _354
REMARK  156  A    between atoms: _354  and  _355
REMARK  157  A    between atoms: _355  and  _356
REMARK  158  A    between atoms: _359  and  _361
REMARK  159  A    between atoms: _361  and  _362
REMARK  160  A    between atoms: _364  and  _366
REMARK  161  A    between atoms: _366  and  _367
REMARK  162  A    between atoms: _369  and  _371
REMARK  163  A    between atoms: _371  and  _372
REMARK  164  A    between atoms: _375  and  _377
REMARK  165  A    between atoms: _377  and  _378
REMARK  166  A    between atoms: _377  and  _380
REMARK  167  A    between atoms: _380  and  _381
REMARK  168  A    between atoms: _386  and  _388
REMARK  169  A    between atoms: _388  and  _389
REMARK  170  A    between atoms: _388  and  _391
REMARK  171  A    between atoms: _391  and  _392
REMARK  172  A    between atoms: _395  and  _397
REMARK  173  A    between atoms: _397  and  _398
REMARK  174  A    between atoms: _397  and  _400
REMARK  175  A    between atoms: _400  and  _401
REMARK  176  A    between atoms: _403  and  _405
REMARK  177  A    between atoms: _405  and  _406
REMARK  178  A    between atoms: _405  and  _408
REMARK  179  A    between atoms: _408  and  _409
REMARK  180  A    between atoms: _412  and  _414
REMARK  181  A    between atoms: _414  and  _415
REMARK  182  A    between atoms: _414  and  _417
REMARK  183  A    between atoms: _417  and  _418
REMARK  184  A    between atoms: _421  and  _423
REMARK  185  A    between atoms: _423  and  _424
REMARK  186  A    between atoms: _423  and  _426
REMARK  187  A    between atoms: _426  and  _427
REMARK  188  A    between atoms: _430  and  _432
REMARK  189  A    between atoms: _432  and  _433
REMARK  190  A    between atoms: _432  and  _435
REMARK  191  A    between atoms: _435  and  _436
REMARK  192  A    between atoms: _439  and  _441
REMARK  193  A    between atoms: _441  and  _442
REMARK  194  A    between atoms: _441  and  _444
REMARK  195  A    between atoms: _444  and  _445
REMARK  196  A    between atoms: _447  and  _449
REMARK  197  A    between atoms: _449  and  _450
REMARK  198  A    between atoms: _449  and  _452
REMARK  199  A    between atoms: _452  and  _453
REMARK  200  A    between atoms: _456  and  _458
REMARK  201  A    between atoms: _458  and  _459
REMARK  202  A    between atoms: _458  and  _461
REMARK  203  A    between atoms: _461  and  _462
REMARK  204  A    between atoms: _468  and  _470
REMARK  205  A    between atoms: _470  and  _471
REMARK  206  A    between atoms: _473  and  _475
REMARK  207  A    between atoms: _475  and  _476
REMARK  208  A    between atoms: _475  and  _478
REMARK  209  A    between atoms: _478  and  _479
REMARK  210  A    between atoms: _485  and  _487
REMARK  211  A    between atoms: _487  and  _488
REMARK  212  A    between atoms: _487  and  _490
REMARK                            x       y       z     vdW  Elec       q    Type
REMARK                         _______ _______ _______ _____ _____    ______ ____
ROOT
ATOM      1  CG  TYR A   1     -29.906  10.200  18.836  0.00  0.00    -0.020 A 
ATOM      2  CD2 TYR A   1     -30.794   9.260  18.331  0.00  0.00    -0.001 A 
ATOM      3  CE2 TYR A   1     -31.608   9.555  17.252  0.00  0.00    +0.036 A 
ATOM      4  CZ  TYR A   1     -31.534  10.806  16.664  0.00  0.00    +0.134 A 
ATOM      5  CE1 TYR A   1     -30.660  11.753  17.149  0.00  0.00    +0.036 A 
ATOM      6  CD1 TYR A   1     -29.852  11.446  18.229  0.00  0.00    -0.001 A 
ENDROOT
BRANCH   4   7
ATOM      7  OH  TYR A   1     -32.336  11.117  15.591  0.00  0.00    -0.506 OA
ATOM      8  HH  TYR A   1     -32.902  10.336  15.366  0.00  0.00    +0.292 HD
ENDBRANCH   4   7
BRANCH   1   9
ATOM      9  CB  TYR A   1     -29.020   9.879  20.011  0.00  0.00    +0.051 C 
BRANCH   9  10
ATOM     10  CA  TYR A   1     -29.727   9.965  21.365  0.00  0.00    +0.137 C 
BRANCH  10  11
ATOM     11  N   TYR A   1     -28.780  10.391  22.397  0.00  0.00    -0.239 NA
ATOM     12  H   TYR A   1     -27.833  10.704  22.102  0.00  0.00    +0.142 HD
ENDBRANCH  10  11
BRANCH  10  13
ATOM     13  C   TYR A   1     -30.410   8.632  21.663  0.00  0.00    +0.224 C 
ATOM     14  O   TYR A   1     -29.797   7.708  22.191  0.00  0.00    -0.287 OA
ENDBRANCH  10  13
ENDBRANCH   9  10
ENDBRANCH   1   9
TORSDOF 5
REMARK  Name = ../refined-set-2016/4o0x/4o0x_pocket.pdb
REMARK  212 active torsions:
REMARK  status: ('A' for Active; 'I' for Inactive)
REMARK    1  A    between atoms: _1  and  _3
REMARK    2  A    between atoms: _3  and  _4
REMARK    3  A    between atoms: _3  and  _6
REMARK    4  A    between atoms: _6  and  _7
REMARK    5  A    between atoms: _7  and  _8
REMARK    6  A    between atoms: _8  and  _9
REMARK    7  A    between atoms: _9  and  _10
REMARK    8  A    between atoms: _14  and  _16
REMARK    9  A    between atoms: _16  and  _17
REMARK   10  A    between atoms: _16  and  _19
REMARK   11  A    between atoms: _19  and  _20
REMARK   12  A    between atoms: _23  and  _25
REMARK   13  A    between atoms: _25  and  _26
REMARK   14  A    between atoms: _28  and  _30
REMARK   15  A    between atoms: _30  and  _31
REMARK   16  A    between atoms: _30  and  _33
REMARK   17  A    between atoms: _33  and  _34
REMARK   18  A    between atoms: _34  and  _35
REMARK   19  A    between atoms: _38  and  _40
REMARK   20  A    between atoms: _40  and  _41
REMARK   21  A    between atoms: _43  and  _45
REMARK   22  A    between atoms: _45  and  _46
REMARK   23  A    between atoms: _45  and  _48
REMARK   24  A    between atoms: _48  and  _49
REMARK   25  A    between atoms: _51  and  _53
REMARK   26  A    between atoms: _53  and  _54
REMARK   27  A    between atoms: _53  and  _56
REMARK   28  A    between atoms: _56  and  _57
REMARK   29  A    between atoms: _60  and  _62
REMARK   30  A    between atoms: _62  and  _63
REMARK   31  A    between atoms: _65  and  _67
REMARK   32  A    between atoms: _67  and  _68
REMARK   33  A    between atoms: _67  and  _70
REMARK   34  A    between atoms: _70  and  _71
REMARK   35  A    between atoms: _74  and  _76
REMARK   36  A    between atoms: _76  and  _77
REMARK   37  A    between atoms: _76  and  _79
REMARK   38  A    between atoms: _82  and  _84
REMARK   39  A    between atoms: _84  and  _85
REMARK   40  A    between atoms: _84  and  _87
REMARK   41  A    between atoms: _89  and  _91
REMARK   42  A    between atoms: _91  and  _92
REMARK   43  A    between atoms: _91  and  _94
REMARK   44  A    between atoms: _94  and  _95
REMARK   45  A    between atoms: _98  and  _100
REMARK   46  A    between atoms: _100  and  _101
REMARK   47  A    between atoms: _100  and  _103
REMARK   48  A    between atoms: _106  and  _108
REMARK   49  A    between atoms: _108  and  _109
REMARK   50  A    between atoms: _112  and  _114
REMARK   51  A    between atoms: _114  and  _115
REMARK   52  A    between atoms: _114  and  _117
REMARK   53  A    between atoms: _120  and  _122
REMARK   54  A    between atoms: _122  and  _123
REMARK   55  A    between atoms: _122  and  _125
REMARK   56  A    between atoms: _125  and  _126
REMARK   57  A    between atoms: _126  and  _127
REMARK   58  A    between atoms: _127  and  _128
REMARK   59  A    between atoms: _128  and  _129
REMARK   60  A    between atoms: _133  and  _135
REMARK   61  A    between atoms: _135  and  _136
REMARK   62  A    between atoms: _135  and  _138
REMARK   63  A    between atoms: _138  and  _139
REMARK   64  A    between atoms: _139  and  _140
REMARK   65  A    between atoms: _140  and  _141
REMARK   66  A    between atoms: _141  and  _142
REMARK   67  A    between atoms: _146  and  _148
REMARK   68  A    between atoms: _148  and  _149
REMARK   69  A    between atoms: _148  and  _151
REMARK   70  A    between atoms: _151  and  _152
REMARK   71  A    between atoms: _152  and  _153
REMARK   72  A    between atoms: _155  and  _157
REMARK   73  A    between atoms: _157  and  _158
REMARK   74  A    between atoms: _157  and  _160
REMARK   75  A    between atoms: _160  and  _161
REMARK   76  A    between atoms: _166  and  _168
REMARK   77  A    between atoms: _168  and  _169
REMARK   78  A    between atoms: _168  and  _171
REMARK   79  A    between atoms: _171  and  _172
REMARK   80  A    between atoms: _172  and  _173
REMARK   81  A    between atoms: _176  and  _178
REMARK   82  A    between atoms: _178  and  _179
REMARK   83  A    between atoms: _178  and  _181
REMARK   84  A    between atoms: _184  and  _186
REMARK   85  A    between atoms: _186  and  _187
REMARK   86  A    between atoms: _186  and  _189
REMARK   87  A    between atoms: _189  and  _190
REMARK   88  A    between atoms: _193  and  _195
REMARK   89  A    between atoms: _195  and  _196
REMARK   90  A    between atoms: _195  and  _198
REMARK   91  A    between atoms: _198  and  _199
REMARK   92  A    between atoms: _199  and  _200
REMARK   93  A    between atoms: _202  and  _204
REMARK   94  A    between atoms: _204  and  _205
REMARK   95  A    between atoms: _204  and  _207
REMARK   96  A    between atoms: _207  and  _208
REMARK   97  A    between atoms: _208  and  _209
REMARK   98  A    between atoms: _209  and  _210
REMARK   99  A    between atoms: _219  and  _221
REMARK  100  A    between atoms: _221  and  _222
REMARK  101  A    between atoms: _221  and  _224
REMARK  102  A    between atoms: _224  and  _225
REMARK  103  A    between atoms: _230  and  _231
REMARK  104  A    between atoms: _233  and  _235
REMARK  105  A    between atoms: _235  and  _236
REMARK  106  A    between atoms: _235  and  _238
REMARK  107  A    between atoms: _241  and  _243
REMARK  108  A    between atoms: _243  and  _244
REMARK  109  A    between atoms: _243  and  _246
REMARK  110  A    between atoms: _249  and  _251
REMARK  111  A    between atoms: _251  and  _252
REMARK  112  A    between atoms: _251  and  _254
REMARK  113  A    between atoms: _254  and  _255
REMARK  114  A    between atoms: _255  and  _256
REMARK  115  A    between atoms: _259  and  _261
REMARK  116  A    between atoms: _261  and  _262
REMARK  117  A    between atoms: _261  and  _264
REMARK  118  A    between atoms: _264  and  _265
REMARK  119  A    between atoms: _265  and  _266
REMARK  120  A    between atoms: _268  and  _270
REMARK  121  A    between atoms: _270  and  _271
REMARK  122  A    between atoms: _270  and  _273
REMARK  123  A    between atoms: _273  and  _274
REMARK  124  A    between atoms: _279  and  _280
REMARK  125  A    between atoms: _282  and  _284
REMARK  126  A    between atoms: _284  and  _285
REMARK  127  A    between atoms: _284  and  _287
REMARK  128  A    between atoms: _287  and  _288
REMARK  129  A    between atoms: _293  and  _295
REMARK  130  A    between atoms: _295  and  _296
REMARK  131  A    between atoms: _295  and  _298
REMARK  132  A    between atoms: _301  and  _303
REMARK  133  A    between atoms: _303  and  _304
REMARK  134  A    between atoms: _303  and  _306
REMARK  135  A    between atoms: _309  and  _311
REMARK  136  A    between atoms: _311  and  _312
REMARK  137  A    between atoms: _311  and  _314
REMARK  138  A    between atoms: _314  and  _315
REMARK  139  A    between atoms: _315  and  _316
REMARK  140  A    between atoms: _318  and  _320
REMARK  141  A    between atoms: _320  and  _321
REMARK  142  A    between atoms: _320  and  _323
REMARK  143  A    between atoms: _323  and  _324
REMARK  144  A    between atoms: _324  and  _325
REMARK  145  A    between atoms: _328  and  _330
REMARK  146  A    between atoms: _330  and  _331
REMARK  147  A    between atoms: _330  and  _333
REMARK  148  A    between atoms: _333  and  _334
REMARK  149  A    between atoms: _340  and  _342
REMARK  150  A    between atoms: _342  and  _343
REMARK  151  A    between atoms: _342  and  _345
REMARK  152  A    between atoms: _345  and  _346
REMARK  153  A    between atoms: _349  and  _351
REMARK  154  A    between atoms: _351  and  _352
REMARK  155  A    between atoms: _351  and  _354
REMARK  156  A    between atoms: _354  and  _355
REMARK  157  A    between atoms: _355  and  _356
REMARK  158  A    between atoms: _359  and  _361
REMARK  159  A    between atoms: _361  and  _362
REMARK  160  A    between atoms: _364  and  _366
REMARK  161  A    between atoms: _366  and  _367
REMARK  162  A    between atoms: _369  and  _371
REMARK  163  A    between atoms: _371  and  _372
REMARK  164  A    between atoms: _375  and  _377
REMARK  165  A    between atoms: _377  and  _378
REMARK  166  A    between atoms: _377  and  _380
REMARK  167  A    between atoms: _380  and  _381
REMARK  168  A    between atoms: _386  and  _388
REMARK  169  A    between atoms: _388  and  _389
REMARK  170  A    between atoms: _388  and  _391
REMARK  171  A    between atoms: _391  and  _392
REMARK  172  A    between atoms: _395  and  _397
REMARK  173  A    between atoms: _397  and  _398
REMARK  174  A    between atoms: _397  and  _400
REMARK  175  A    between atoms: _400  and  _401
REMARK  176  A    between atoms: _403  and  _405
REMARK  177  A    between atoms: _405  and  _406
REMARK  178  A    between atoms: _405  and  _408
REMARK  179  A    between atoms: _408  and  _409
REMARK  180  A    between atoms: _412  and  _414
REMARK  181  A    between atoms: _414  and  _415
REMARK  182  A    between atoms: _414  and  _417
REMARK  183  A    between atoms: _417  and  _418
REMARK  184  A    between atoms: _421  and  _423
REMARK  185  A    between atoms: _423  and  _424
REMARK  186  A    between atoms: _423  and  _426
REMARK  187  A    between atoms: _426  and  _427
REMARK  188  A    between atoms: _430  and  _432
REMARK  189  A    between atoms: _432  and  _433
REMARK  190  A    between atoms: _432  and  _435
REMARK  191  A    between atoms: _435  and  _436
REMARK  192  A    between atoms: _439  and  _441
REMARK  193  A    between atoms: _441  and  _442
REMARK  194  A    between atoms: _441  and  _444
REMARK  195  A    between atoms: _444  and  _445
REMARK  196  A    between atoms: _447  and  _449
REMARK  197  A    between atoms: _449  and  _450
REMARK  198  A    between atoms: _449  and  _452
REMARK  199  A    between atoms: _452  and  _453
REMARK  200  A    between atoms: _456  and  _458
REMARK  201  A    between atoms: _458  and  _459
REMARK  202  A    between atoms: _458  and  _461
REMARK  203  A    between atoms: _461  and  _462
REMARK  204  A    between atoms: _468  and  _470
REMARK  205  A    between atoms: _470  and  _471
REMARK  206  A    between atoms: _473  and  _475
REMARK  207  A    between atoms: _475  and  _476
REMARK  208  A    between atoms: _475  and  _478
REMARK  209  A    between atoms: _478  and  _479
REMARK  210  A    between atoms: _485  and  _487
REMARK  211  A    between atoms: _487  and  _488
REMARK  212  A    between atoms: _487  and  _490
REMARK                            x       y       z     vdW  Elec       q    Type
REMARK                         _______ _______ _______ _____ _____    ______ ____
ROOT
ATOM      1  CA  MET A   4     -24.838   4.487  22.849  0.00  0.00    +0.149 C 
ENDROOT
BRANCH   1   2
ATOM      2  C   MET A   4     -25.071   4.500  24.365  0.00  0.00    +0.241 C 
ATOM      3  N   TYR A   5     -24.202   3.823  25.109  0.00  0.00    -0.297 N 
ATOM      4  H   TYR A   5     -23.396   3.356  24.647  0.00  0.00    +0.150 HD
ATOM      5  O   MET A   4     -26.031   5.102  24.848  0.00  0.00    -0.273 OA
BRANCH   3   6
ATOM      6  CA  TYR A   5     -24.351   3.718  26.562  0.00  0.00    +0.153 C 
BRANCH   6   7
ATOM      7  C   TYR A   5     -23.448   4.691  27.308  0.00  0.00    +0.241 C 
ATOM      8  O   TYR A   5     -23.910   5.523  28.081  0.00  0.00    -0.273 OA
ATOM      9  N   ASN A   6     -22.150   4.562  27.071  0.00  0.00    -0.298 N 
ATOM     10  H   ASN A   6     -21.834   3.856  26.376  0.00  0.00    +0.150 HD
BRANCH   9  11
ATOM     11  CA  ASN A   6     -21.157   5.370  27.747  0.00  0.00    +0.146 C 
BRANCH  11  12
ATOM     12  C   ASN A   6     -19.977   5.671  26.847  0.00  0.00    +0.227 C 
ATOM     13  O   ASN A   6     -19.781   5.019  25.817  0.00  0.00    -0.286 OA
ENDBRANCH  11  12
BRANCH  11  14
ATOM     14  CB  ASN A   6     -20.655   4.649  29.000  0.00  0.00    +0.112 C 
BRANCH  14  15
ATOM     15  CG  ASN A   6     -21.663   4.667  30.124  0.00  0.00    +0.222 C 
ATOM     16  OD1 ASN A   6     -22.073   3.618  30.621  0.00  0.00    -0.275 OA
ATOM     17  ND2 ASN A   6     -22.069   5.867  30.537  0.00  0.00    -0.329 N 
ATOM     18 HD21 ASN A   6     -22.760   5.944  31.310  0.00  0.00    +0.145 HD
ATOM     19 HD22 ASN A   6     -21.694   6.726  30.086  0.00  0.00    +0.145 HD
ENDBRANCH  14  15
ENDBRANCH  11  14
ENDBRANCH   9  11
ENDBRANCH   6   7
BRANCH   6  20
ATOM     20  CB  TYR A   5     -24.040   2.295  27.026  0.00  0.00    +0.055 C 
BRANCH  20  21
ATOM     21  CG  TYR A   5     -25.026   1.269  26.529  0.00  0.00    -0.020 A 
ATOM     22  CD2 TYR A   5     -24.654  -0.057  26.360  0.00  0.00    -0.001 A 
ATOM     23  CE2 TYR A   5     -25.556  -0.998  25.911  0.00  0.00    +0.036 A 
ATOM     24  CZ  TYR A   5     -26.848  -0.619  25.620  0.00  0.00    +0.134 A 
ATOM     25  CE1 TYR A   5     -27.239   0.694  25.773  0.00  0.00    +0.036 A 
ATOM     26  CD1 TYR A   5     -26.331   1.628  26.226  0.00  0.00    -0.001 A 
BRANCH  24  27
ATOM     27  OH  TYR A   5     -27.757  -1.554  25.170  0.00  0.00    -0.506 OA
ATOM     28  HH  TYR A   5     -28.630  -1.114  25.011  0.00  0.00    +0.292 HD
ENDBRANCH  24  27
ENDBRANCH  20  21
ENDBRANCH   6  20
ENDBRANCH   3   6
ENDBRANCH   1   2
BRANCH   1  30
ATOM     29  C   GLU A   3     -26.554   3.117  21.812  0.00  0.00    +0.241 C 
ATOM     30  N   MET A   4     -26.096   4.313  22.146  0.00  0.00    -0.297 N 
ATOM     31  H   MET A   4     -26.655   5.154  21.897  0.00  0.00    +0.150 HD
ATOM     32  O   GLU A   3     -25.928   2.079  22.014  0.00  0.00    -0.273 OA
BRANCH  29  33
ATOM     33  CA  GLU A   3     -27.931   3.100  21.160  0.00  0.00    +0.149 C 
BRANCH  33  35
ATOM     34  C   VAL A   2     -27.565   2.960  18.763  0.00  0.00    +0.241 C 
ATOM     35  N   GLU A   3     -27.944   2.378  19.895  0.00  0.00    -0.297 N 
ATOM     36  H   GLU A   3     -28.257   1.386  19.878  0.00  0.00    +0.150 HD
ATOM     37  O   VAL A   2     -27.158   4.119  18.711  0.00  0.00    -0.273 OA
BRANCH  34  38
ATOM     38  CA  VAL A   2     -27.671   2.110  17.502  0.00  0.00    +0.148 C 
BRANCH  38  41
ATOM     39  C   VAL A   1     -29.729   3.202  16.776  0.00  0.00    +0.238 C 
ATOM     40  O   VAL A   1     -30.302   2.960  17.841  0.00  0.00    -0.274 OA
ATOM     41  N   VAL A   2     -28.493   2.787  16.505  0.00  0.00    -0.297 N 
ATOM     42  H   VAL A   2     -28.102   2.950  15.555  0.00  0.00    +0.150 HD
BRANCH  39  43
ATOM     43  CA  VAL A   1     -30.444   3.969  15.664  0.00  0.00    +0.145 C 
BRANCH  43  44
ATOM     44  CB  VAL A   1     -30.446   5.491  15.949  0.00  0.00    +0.025 C 
ATOM     45  CG2 VAL A   1     -29.031   6.004  16.196  0.00  0.00    +0.002 C 
ATOM     46  CG1 VAL A   1     -31.088   6.246  14.789  0.00  0.00    +0.002 C 
ENDBRANCH  43  44
BRANCH  43  47
ATOM     47  N   VAL A   1     -31.796   3.453  15.520  0.00  0.00    -0.238 NA
ATOM     48  H   VAL A   1     -32.410   3.403  16.358  0.00  0.00    +0.142 HD
ENDBRANCH  43  47
ENDBRANCH  39  43
ENDBRANCH  38  41
BRANCH  38  49
ATOM     49  CB  VAL A   2     -26.254   1.829  16.969  0.00  0.00    +0.027 C 
ATOM     50  CG2 VAL A   2     -25.332   1.405  18.103  0.00  0.00    +0.002 C 
ATOM     51  CG1 VAL A   2     -26.299   0.770  15.870  0.00  0.00    +0.002 C 
ENDBRANCH  38  49
ENDBRANCH  34  38
ENDBRANCH  33  35
BRANCH  33  52
ATOM     52  CB  GLU A   3     -28.957   2.512  22.130  0.00  0.00    +0.041 C 
BRANCH  52  53
ATOM     53  CG  GLU A   3     -29.107   3.309  23.418  0.00  0.00    +0.116 C 
BRANCH  53  54
ATOM     54  CD  GLU A   3     -30.208   2.776  24.316  0.00  0.00    +0.365 C 
ATOM     55  OE2 GLU A   3     -30.382   3.325  25.424  0.00  0.00    -0.246 OA
ATOM     56  OE1 GLU A   3     -30.901   1.814  23.913  0.00  0.00    -0.246 OA
ENDBRANCH  53  54
ENDBRANCH  52  53
ENDBRANCH  33  52
ENDBRANCH  29  33
ENDBRANCH   1  30
BRANCH   1  57
ATOM     57  CB  MET A   4     -24.170   5.782  22.394  0.00  0.00    +0.041 C 
BRANCH  57  58
ATOM     58  CG  MET A   4     -23.012   6.197  23.258  0.00  0.00    +0.060 C 
BRANCH  58  59
ATOM     59  SD  MET A   4     -22.386   7.809  22.793  0.00  0.00    -0.139 S 
ATOM     60  CE  MET A   4     -21.275   8.110  24.156  0.00  0.00    +0.069 C 
ENDBRANCH  58  59
ENDBRANCH  57  58
ENDBRANCH   1  57
TORSDOF 25
REMARK  Name = ../refined-set-2016/4o0x/4o0x_pocket.pdb
REMARK  212 active torsions:
REMARK  status: ('A' for Active; 'I' for Inactive)
REMARK    1  A    between atoms: _1  and  _3
REMARK    2  A    between atoms: _3  and  _4
REMARK    3  A    between atoms: _3  and  _6
REMARK    4  A    between atoms: _6  and  _7
REMARK    5  A    between atoms: _7  and  _8
REMARK    6  A    between atoms: _8  and  _9
REMARK    7  A    between atoms: _9  and  _10
REMARK    8  A    between atoms: _14  and  _16
REMARK    9  A    between atoms: _16  and  _17
REMARK   10  A    between atoms: _16  and  _19
REMARK   11  A    between atoms: _19  and  _20
REMARK   12  A    between atoms: _23  and  _25
REMARK   13  A    between atoms: _25  and  _26
REMARK   14  A    between atoms: _28  and  _30
REMARK   15  A    between atoms: _30  and  _31
REMARK   16  A    between atoms: _30  and  _33
REMARK   17  A    between atoms: _33  and  _34
REMARK   18  A    between atoms: _34  and  _35
REMARK   19  A    between atoms: _38  and  _40
REMARK   20  A    between atoms: _40  and  _41
REMARK   21  A    between atoms: _43  and  _45
REMARK   22  A    between atoms: _45  and  _46
REMARK   23  A    between atoms: _45  and  _48
REMARK   24  A    between atoms: _48  and  _49
REMARK   25  A    between atoms: _51  and  _53
REMARK   26  A    between atoms: _53  and  _54
REMARK   27  A    between atoms: _53  and  _56
REMARK   28  A    between atoms: _56  and  _57
REMARK   29  A    between atoms: _60  and  _62
REMARK   30  A    between atoms: _62  and  _63
REMARK   31  A    between atoms: _65  and  _67
REMARK   32  A    between atoms: _67  and  _68
REMARK   33  A    between atoms: _67  and  _70
REMARK   34  A    between atoms: _70  and  _71
REMARK   35  A    between atoms: _74  and  _76
REMARK   36  A    between atoms: _76  and  _77
REMARK   37  A    between atoms: _76  and  _79
REMARK   38  A    between atoms: _82  and  _84
REMARK   39  A    between atoms: _84  and  _85
REMARK   40  A    between atoms: _84  and  _87
REMARK   41  A    between atoms: _89  and  _91
REMARK   42  A    between atoms: _91  and  _92
REMARK   43  A    between atoms: _91  and  _94
REMARK   44  A    between atoms: _94  and  _95
REMARK   45  A    between atoms: _98  and  _100
REMARK   46  A    between atoms: _100  and  _101
REMARK   47  A    between atoms: _100  and  _103
REMARK   48  A    between atoms: _106  and  _108
REMARK   49  A    between atoms: _108  and  _109
REMARK   50  A    between atoms: _112  and  _114
REMARK   51  A    between atoms: _114  and  _115
REMARK   52  A    between atoms: _114  and  _117
REMARK   53  A    between atoms: _120  and  _122
REMARK   54  A    between atoms: _122  and  _123
REMARK   55  A    between atoms: _122  and  _125
REMARK   56  A    between atoms: _125  and  _126
REMARK   57  A    between atoms: _126  and  _127
REMARK   58  A    between atoms: _127  and  _128
REMARK   59  A    between atoms: _128  and  _129
REMARK   60  A    between atoms: _133  and  _135
REMARK   61  A    between atoms: _135  and  _136
REMARK   62  A    between atoms: _135  and  _138
REMARK   63  A    between atoms: _138  and  _139
REMARK   64  A    between atoms: _139  and  _140
REMARK   65  A    between atoms: _140  and  _141
REMARK   66  A    between atoms: _141  and  _142
REMARK   67  A    between atoms: _146  and  _148
REMARK   68  A    between atoms: _148  and  _149
REMARK   69  A    between atoms: _148  and  _151
REMARK   70  A    between atoms: _151  and  _152
REMARK   71  A    between atoms: _152  and  _153
REMARK   72  A    between atoms: _155  and  _157
REMARK   73  A    between atoms: _157  and  _158
REMARK   74  A    between atoms: _157  and  _160
REMARK   75  A    between atoms: _160  and  _161
REMARK   76  A    between atoms: _166  and  _168
REMARK   77  A    between atoms: _168  and  _169
REMARK   78  A    between atoms: _168  and  _171
REMARK   79  A    between atoms: _171  and  _172
REMARK   80  A    between atoms: _172  and  _173
REMARK   81  A    between atoms: _176  and  _178
REMARK   82  A    between atoms: _178  and  _179
REMARK   83  A    between atoms: _178  and  _181
REMARK   84  A    between atoms: _184  and  _186
REMARK   85  A    between atoms: _186  and  _187
REMARK   86  A    between atoms: _186  and  _189
REMARK   87  A    between atoms: _189  and  _190
REMARK   88  A    between atoms: _193  and  _195
REMARK   89  A    between atoms: _195  and  _196
REMARK   90  A    between atoms: _195  and  _198
REMARK   91  A    between atoms: _198  and  _199
REMARK   92  A    between atoms: _199  and  _200
REMARK   93  A    between atoms: _202  and  _204
REMARK   94  A    between atoms: _204  and  _205
REMARK   95  A    between atoms: _204  and  _207
REMARK   96  A    between atoms: _207  and  _208
REMARK   97  A    between atoms: _208  and  _209
REMARK   98  A    between atoms: _209  and  _210
REMARK   99  A    between atoms: _219  and  _221
REMARK  100  A    between atoms: _221  and  _222
REMARK  101  A    between atoms: _221  and  _224
REMARK  102  A    between atoms: _224  and  _225
REMARK  103  A    between atoms: _230  and  _231
REMARK  104  A    between atoms: _233  and  _235
REMARK  105  A    between atoms: _235  and  _236
REMARK  106  A    between atoms: _235  and  _238
REMARK  107  A    between atoms: _241  and  _243
REMARK  108  A    between atoms: _243  and  _244
REMARK  109  A    between atoms: _243  and  _246
REMARK  110  A    between atoms: _249  and  _251
REMARK  111  A    between atoms: _251  and  _252
REMARK  112  A    between atoms: _251  and  _254
REMARK  113  A    between atoms: _254  and  _255
REMARK  114  A    between atoms: _255  and  _256
REMARK  115  A    between atoms: _259  and  _261
REMARK  116  A    between atoms: _261  and  _262
REMARK  117  A    between atoms: _261  and  _264
REMARK  118  A    between atoms: _264  and  _265
REMARK  119  A    between atoms: _265  and  _266
REMARK  120  A    between atoms: _268  and  _270
REMARK  121  A    between atoms: _270  and  _271
REMARK  122  A    between atoms: _270  and  _273
REMARK  123  A    between atoms: _273  and  _274
REMARK  124  A    between atoms: _279  and  _280
REMARK  125  A    between atoms: _282  and  _284
REMARK  126  A    between atoms: _284  and  _285
REMARK  127  A    between atoms: _284  and  _287
REMARK  128  A    between atoms: _287  and  _288
REMARK  129  A    between atoms: _293  and  _295
REMARK  130  A    between atoms: _295  and  _296
REMARK  131  A    between atoms: _295  and  _298
REMARK  132  A    between atoms: _301  and  _303
REMARK  133  A    between atoms: _303  and  _304
REMARK  134  A    between atoms: _303  and  _306
REMARK  135  A    between atoms: _309  and  _311
REMARK  136  A    between atoms: _311  and  _312
REMARK  137  A    between atoms: _311  and  _314
REMARK  138  A    between atoms: _314  and  _315
REMARK  139  A    between atoms: _315  and  _316
REMARK  140  A    between atoms: _318  and  _320
REMARK  141  A    between atoms: _320  and  _321
REMARK  142  A    between atoms: _320  and  _323
REMARK  143  A    between atoms: _323  and  _324
REMARK  144  A    between atoms: _324  and  _325
REMARK  145  A    between atoms: _328  and  _330
REMARK  146  A    between atoms: _330  and  _331
REMARK  147  A    between atoms: _330  and  _333
REMARK  148  A    between atoms: _333  and  _334
REMARK  149  A    between atoms: _340  and  _342
REMARK  150  A    between atoms: _342  and  _343
REMARK  151  A    between atoms: _342  and  _345
REMARK  152  A    between atoms: _345  and  _346
REMARK  153  A    between atoms: _349  and  _351
REMARK  154  A    between atoms: _351  and  _352
REMARK  155  A    between atoms: _351  and  _354
REMARK  156  A    between atoms: _354  and  _355
REMARK  157  A    between atoms: _355  and  _356
REMARK  158  A    between atoms: _359  and  _361
REMARK  159  A    between atoms: _361  and  _362
REMARK  160  A    between atoms: _364  and  _366
REMARK  161  A    between atoms: _366  and  _367
REMARK  162  A    between atoms: _369  and  _371
REMARK  163  A    between atoms: _371  and  _372
REMARK  164  A    between atoms: _375  and  _377
REMARK  165  A    between atoms: _377  and  _378
REMARK  166  A    between atoms: _377  and  _380
REMARK  167  A    between atoms: _380  and  _381
REMARK  168  A    between atoms: _386  and  _388
REMARK  169  A    between atoms: _388  and  _389
REMARK  170  A    between atoms: _388  and  _391
REMARK  171  A    between atoms: _391  and  _392
REMARK  172  A    between atoms: _395  and  _397
REMARK  173  A    between atoms: _397  and  _398
REMARK  174  A    between atoms: _397  and  _400
REMARK  175  A    between atoms: _400  and  _401
REMARK  176  A    between atoms: _403  and  _405
REMARK  177  A    between atoms: _405  and  _406
REMARK  178  A    between atoms: _405  and  _408
REMARK  179  A    between atoms: _408  and  _409
REMARK  180  A    between atoms: _412  and  _414
REMARK  181  A    between atoms: _414  and  _415
REMARK  182  A    between atoms: _414  and  _417
REMARK  183  A    between atoms: _417  and  _418
REMARK  184  A    between atoms: _421  and  _423
REMARK  185  A    between atoms: _423  and  _424
REMARK  186  A    between atoms: _423  and  _426
REMARK  187  A    between atoms: _426  and  _427
REMARK  188  A    between atoms: _430  and  _432
REMARK  189  A    between atoms: _432  and  _433
REMARK  190  A    between atoms: _432  and  _435
REMARK  191  A    between atoms: _435  and  _436
REMARK  192  A    between atoms: _439  and  _441
REMARK  193  A    between atoms: _441  and  _442
REMARK  194  A    between atoms: _441  and  _444
REMARK  195  A    between atoms: _444  and  _445
REMARK  196  A    between atoms: _447  and  _449
REMARK  197  A    between atoms: _449  and  _450
REMARK  198  A    between atoms: _449  and  _452
REMARK  199  A    between atoms: _452  and  _453
REMARK  200  A    between atoms: _456  and  _458
REMARK  201  A    between atoms: _458  and  _459
REMARK  202  A    between atoms: _458  and  _461
REMARK  203  A    between atoms: _461  and  _462
REMARK  204  A    between atoms: _468  and  _470
REMARK  205  A    between atoms: _470  and  _471
REMARK  206  A    between atoms: _473  and  _475
REMARK  207  A    between atoms: _475  and  _476
REMARK  208  A    between atoms: _475  and  _478
REMARK  209  A    between atoms: _478  and  _479
REMARK  210  A    between atoms: _485  and  _487
REMARK  211  A    between atoms: _487  and  _488
REMARK  212  A    between atoms: _487  and  _490
REMARK                            x       y       z     vdW  Elec       q    Type
REMARK                         _______ _______ _______ _____ _____    ______ ____
ROOT
ATOM      1  CA  PHE A   5     -24.332  -5.041  20.407  0.00  0.00    +0.153 C 
ENDROOT
BRANCH   1   2
ATOM      2  C   PHE A   5     -25.431  -5.580  19.483  0.00  0.00    +0.241 C 
ATOM      3  O   PHE A   5     -26.424  -6.154  19.947  0.00  0.00    -0.273 OA
ATOM      4  N   LEU A   6     -25.250  -5.378  18.180  0.00  0.00    -0.297 N 
ATOM      5  H   LEU A   6     -24.392  -4.882  17.865  0.00  0.00    +0.150 HD
BRANCH   4   6
ATOM      6  CA  LEU A   6     -26.214  -5.828  17.174  0.00  0.00    +0.149 C 
BRANCH   6   7
ATOM      7  C   LEU A   6     -25.810  -7.194  16.635  0.00  0.00    +0.241 C 
ATOM      8  N   GLU A   7     -26.411  -8.240  17.198  0.00  0.00    -0.297 N 
ATOM      9  H   GLU A   7     -27.212  -8.069  17.839  0.00  0.00    +0.150 HD
ATOM     10  O   LEU A   6     -24.983  -7.291  15.729  0.00  0.00    -0.273 OA
BRANCH   8  11
ATOM     11  CA  GLU A   7     -25.992  -9.622  16.953  0.00  0.00    +0.149 C 
BRANCH  11  12
ATOM     12  C   GLU A   7     -26.193 -10.128  15.519  0.00  0.00    +0.241 C 
ATOM     13  O   GLU A   7     -25.657 -11.172  15.152  0.00  0.00    -0.273 OA
ATOM     14  N   GLY A   8     -26.945  -9.388  14.707  0.00  0.00    -0.295 N 
ATOM     15  H   GLY A   8     -27.316  -8.477  15.045  0.00  0.00    +0.150 HD
BRANCH  14  16
ATOM     16  CA  GLY A   8     -27.257  -9.829  13.358  0.00  0.00    +0.176 C 
BRANCH  16  17
ATOM     17  C   GLY A   8     -26.217  -9.483  12.306  0.00  0.00    +0.243 C 
ATOM     18  N   GLY A   9     -25.167  -8.763  12.697  0.00  0.00    -0.295 N 
ATOM     19  H   GLY A   9     -25.075  -8.497  13.698  0.00  0.00    +0.150 HD
ATOM     20  O   GLY A   8     -26.365  -9.863  11.146  0.00  0.00    -0.273 OA
BRANCH  18  21
ATOM     21  CA  GLY A   9     -24.148  -8.342  11.750  0.00  0.00    +0.176 C 
BRANCH  21  22
ATOM     22  C   GLY A   9     -24.649  -7.236  10.830  0.00  0.00    +0.243 C 
ATOM     23  O   GLY A   9     -25.753  -6.714  11.020  0.00  0.00    -0.273 OA
ATOM     24  N   ALA A  10     -23.847  -6.884   9.826  0.00  0.00    -0.298 N 
ATOM     25  H   ALA A  10     -22.971  -7.421   9.666  0.00  0.00    +0.150 HD
BRANCH  24  26
ATOM     26  CA  ALA A  10     -24.165  -5.761   8.941  0.00  0.00    +0.137 C 
ATOM     27  CB  ALA A  10     -22.892  -5.013   8.550  0.00  0.00    +0.030 C 
BRANCH  26  28
ATOM     28  C   ALA A  10     -24.932  -6.183   7.693  0.00  0.00    +0.227 C 
ATOM     29  O   ALA A  10     -24.961  -7.359   7.335  0.00  0.00    -0.286 OA
ENDBRANCH  26  28
ENDBRANCH  24  26
ENDBRANCH  21  22
ENDBRANCH  18  21
ENDBRANCH  16  17
ENDBRANCH  14  16
ENDBRANCH  11  12
BRANCH  11  30
ATOM     30  CB  GLU A   7     -26.655 -10.584  17.961  0.00  0.00    +0.041 C 
BRANCH  30  31
ATOM     31  CG  GLU A   7     -28.185 -10.684  17.880  0.00  0.00    +0.116 C 
BRANCH  31  32
ATOM     32  CD  GLU A   7     -28.900  -9.518  18.543  0.00  0.00    +0.365 C 
ATOM     33  OE2 GLU A   7     -28.218  -8.661  19.132  0.00  0.00    -0.246 OA
ATOM     34  OE1 GLU A   7     -30.144  -9.453  18.478  0.00  0.00    -0.246 OA
ENDBRANCH  31  32
ENDBRANCH  30  31
ENDBRANCH  11  30
ENDBRANCH   8  11
ENDBRANCH   6   7
BRANCH   6  35
ATOM     35  CB  LEU A   6     -26.319  -4.818  16.027  0.00  0.00    +0.029 C 
BRANCH  35  36
ATOM     36  CG  LEU A   6     -27.178  -3.556  16.208  0.00  0.00    +0.002 C 
ATOM     37  CD2 LEU A   6     -26.694  -2.689  17.368  0.00  0.00    +0.000 C 
ATOM     38  CD1 LEU A   6     -28.645  -3.910  16.381  0.00  0.00    +0.000 C 
ENDBRANCH  35  36
ENDBRANCH   6  35
ENDBRANCH   4   6
ENDBRANCH   1   2
BRANCH   1  40
ATOM     39  C   GLU A   4     -24.876  -2.762  21.065  0.00  0.00    +0.241 C 
ATOM     40  N   PHE A   5     -24.880  -4.063  21.338  0.00  0.00    -0.297 N 
ATOM     41  H   PHE A   5     -25.284  -4.391  22.238  0.00  0.00    +0.150 HD
ATOM     42  O   GLU A   4     -24.304  -2.292  20.078  0.00  0.00    -0.273 OA
BRANCH  39  43
ATOM     43  CA  GLU A   4     -25.599  -1.845  22.070  0.00  0.00    +0.149 C 
BRANCH  43  46
ATOM     44  C   MET A   3     -23.512  -0.761  22.808  0.00  0.00    +0.241 C 
ATOM     45  O   MET A   3     -22.904  -1.809  23.030  0.00  0.00    -0.273 OA
ATOM     46  N   GLU A   4     -24.781  -0.701  22.433  0.00  0.00    -0.297 N 
ATOM     47  H   GLU A   4     -25.226   0.238  22.396  0.00  0.00    +0.150 HD
BRANCH  44  48
ATOM     48  CA  MET A   3     -22.853   0.601  22.968  0.00  0.00    +0.149 C 
BRANCH  48  51
ATOM     49  C   VAL A   2     -21.082   1.599  24.259  0.00  0.00    +0.241 C 
ATOM     50  O   VAL A   2     -21.765   2.602  24.475  0.00  0.00    -0.273 OA
ATOM     51  N   MET A   3     -21.547   0.546  23.598  0.00  0.00    -0.297 N 
ATOM     52  H   MET A   3     -20.974  -0.320  23.532  0.00  0.00    +0.150 HD
BRANCH  49  53
ATOM     53  CA  VAL A   2     -19.637   1.521  24.740  0.00  0.00    +0.148 C 
BRANCH  53  55
ATOM     54  C   VAL A   1     -18.224   2.882  23.308  0.00  0.00    +0.238 C 
ATOM     55  N   VAL A   2     -18.954   2.764  24.410  0.00  0.00    -0.297 N 
ATOM     56  H   VAL A   2     -19.040   3.577  25.052  0.00  0.00    +0.150 HD
ATOM     57  O   VAL A   1     -18.005   1.939  22.552  0.00  0.00    -0.274 OA
BRANCH  54  58
ATOM     58  CA  VAL A   1     -17.629   4.258  23.036  0.00  0.00    +0.145 C 
BRANCH  58  59
ATOM     59  CB  VAL A   1     -18.200   4.830  21.728  0.00  0.00    +0.025 C 
ATOM     60  CG2 VAL A   1     -19.716   4.964  21.816  0.00  0.00    +0.002 C 
ATOM     61  CG1 VAL A   1     -17.553   6.169  21.417  0.00  0.00    +0.002 C 
ENDBRANCH  58  59
BRANCH  58  62
ATOM     62  N   VAL A   1     -16.185   4.140  22.973  0.00  0.00    -0.238 NA
ATOM     63  H   VAL A   1     -15.752   3.607  22.192  0.00  0.00    +0.142 HD
ENDBRANCH  58  62
ENDBRANCH  54  58
ENDBRANCH  53  55
BRANCH  53  64
ATOM     64  CB  VAL A   2     -19.578   1.223  26.251  0.00  0.00    +0.027 C 
ATOM     65  CG2 VAL A   2     -18.130   1.164  26.716  0.00  0.00    +0.002 C 
ATOM     66  CG1 VAL A   2     -20.308  -0.069  26.563  0.00  0.00    +0.002 C 
ENDBRANCH  53  64
ENDBRANCH  49  53
ENDBRANCH  48  51
BRANCH  48  67
ATOM     67  CB  MET A   3     -22.733   1.253  21.595  0.00  0.00    +0.041 C 
BRANCH  67  68
ATOM     68  CG  MET A   3     -21.976   0.377  20.605  0.00  0.00    +0.060 C 
BRANCH  68  69
ATOM     69  SD  MET A   3     -21.611   1.193  19.044  0.00  0.00    -0.139 S 
ATOM     70  CE  MET A   3     -19.826   1.110  19.042  0.00  0.00    +0.069 C 
ENDBRANCH  68  69
ENDBRANCH  67  68
ENDBRANCH  48  67
ENDBRANCH  44  48
ENDBRANCH  43  46
BRANCH  43  71
ATOM     71  CB  GLU A   4     -26.888  -1.283  21.464  0.00  0.00    +0.041 C 
BRANCH  71  72
ATOM     72  CG  GLU A   4     -27.885  -2.262  20.910  0.00  0.00    +0.116 C 
BRANCH  72  73
ATOM     73  CD  GLU A   4     -29.084  -1.550  20.307  0.00  0.00    +0.365 C 
ATOM     74  OE2 GLU A   4     -30.131  -2.203  20.107  0.00  0.00    -0.246 OA
ATOM     75  OE1 GLU A   4     -28.979  -0.331  20.040  0.00  0.00    -0.246 OA
ENDBRANCH  72  73
ENDBRANCH  71  72
ENDBRANCH  43  71
ENDBRANCH  39  43
ENDBRANCH   1  40
BRANCH   1  76
ATOM     76  CB  PHE A   5     -23.643  -6.185  21.162  0.00  0.00    +0.055 C 
BRANCH  76  77
ATOM     77  CG  PHE A   5     -23.285  -7.372  20.292  0.00  0.00    -0.020 A 
ATOM     78  CD2 PHE A   5     -23.644  -8.660  20.671  0.00  0.00    -0.004 A 
ATOM     79  CE2 PHE A   5     -23.309  -9.751  19.886  0.00  0.00    -0.000 A 
ATOM     80  CZ  PHE A   5     -22.603  -9.566  18.709  0.00  0.00    -0.000 A 
ATOM     81  CE1 PHE A   5     -22.239  -8.295  18.320  0.00  0.00    -0.000 A 
ATOM     82  CD1 PHE A   5     -22.574  -7.204  19.109  0.00  0.00    -0.004 A 
ENDBRANCH  76  77
ENDBRANCH   1  76
TORSDOF 35
REMARK  Name = ../refined-set-2016/4o0x/4o0x_pocket.pdb
REMARK  212 active torsions:
REMARK  status: ('A' for Active; 'I' for Inactive)
REMARK    1  A    between atoms: _1  and  _3
REMARK    2  A    between atoms: _3  and  _4
REMARK    3  A    between atoms: _3  and  _6
REMARK    4  A    between atoms: _6  and  _7
REMARK    5  A    between atoms: _7  and  _8
REMARK    6  A    between atoms: _8  and  _9
REMARK    7  A    between atoms: _9  and  _10
REMARK    8  A    between atoms: _14  and  _16
REMARK    9  A    between atoms: _16  and  _17
REMARK   10  A    between atoms: _16  and  _19
REMARK   11  A    between atoms: _19  and  _20
REMARK   12  A    between atoms: _23  and  _25
REMARK   13  A    between atoms: _25  and  _26
REMARK   14  A    between atoms: _28  and  _30
REMARK   15  A    between atoms: _30  and  _31
REMARK   16  A    between atoms: _30  and  _33
REMARK   17  A    between atoms: _33  and  _34
REMARK   18  A    between atoms: _34  and  _35
REMARK   19  A    between atoms: _38  and  _40
REMARK   20  A    between atoms: _40  and  _41
REMARK   21  A    between atoms: _43  and  _45
REMARK   22  A    between atoms: _45  and  _46
REMARK   23  A    between atoms: _45  and  _48
REMARK   24  A    between atoms: _48  and  _49
REMARK   25  A    between atoms: _51  and  _53
REMARK   26  A    between atoms: _53  and  _54
REMARK   27  A    between atoms: _53  and  _56
REMARK   28  A    between atoms: _56  and  _57
REMARK   29  A    between atoms: _60  and  _62
REMARK   30  A    between atoms: _62  and  _63
REMARK   31  A    between atoms: _65  and  _67
REMARK   32  A    between atoms: _67  and  _68
REMARK   33  A    between atoms: _67  and  _70
REMARK   34  A    between atoms: _70  and  _71
REMARK   35  A    between atoms: _74  and  _76
REMARK   36  A    between atoms: _76  and  _77
REMARK   37  A    between atoms: _76  and  _79
REMARK   38  A    between atoms: _82  and  _84
REMARK   39  A    between atoms: _84  and  _85
REMARK   40  A    between atoms: _84  and  _87
REMARK   41  A    between atoms: _89  and  _91
REMARK   42  A    between atoms: _91  and  _92
REMARK   43  A    between atoms: _91  and  _94
REMARK   44  A    between atoms: _94  and  _95
REMARK   45  A    between atoms: _98  and  _100
REMARK   46  A    between atoms: _100  and  _101
REMARK   47  A    between atoms: _100  and  _103
REMARK   48  A    between atoms: _106  and  _108
REMARK   49  A    between atoms: _108  and  _109
REMARK   50  A    between atoms: _112  and  _114
REMARK   51  A    between atoms: _114  and  _115
REMARK   52  A    between atoms: _114  and  _117
REMARK   53  A    between atoms: _120  and  _122
REMARK   54  A    between atoms: _122  and  _123
REMARK   55  A    between atoms: _122  and  _125
REMARK   56  A    between atoms: _125  and  _126
REMARK   57  A    between atoms: _126  and  _127
REMARK   58  A    between atoms: _127  and  _128
REMARK   59  A    between atoms: _128  and  _129
REMARK   60  A    between atoms: _133  and  _135
REMARK   61  A    between atoms: _135  and  _136
REMARK   62  A    between atoms: _135  and  _138
REMARK   63  A    between atoms: _138  and  _139
REMARK   64  A    between atoms: _139  and  _140
REMARK   65  A    between atoms: _140  and  _141
REMARK   66  A    between atoms: _141  and  _142
REMARK   67  A    between atoms: _146  and  _148
REMARK   68  A    between atoms: _148  and  _149
REMARK   69  A    between atoms: _148  and  _151
REMARK   70  A    between atoms: _151  and  _152
REMARK   71  A    between atoms: _152  and  _153
REMARK   72  A    between atoms: _155  and  _157
REMARK   73  A    between atoms: _157  and  _158
REMARK   74  A    between atoms: _157  and  _160
REMARK   75  A    between atoms: _160  and  _161
REMARK   76  A    between atoms: _166  and  _168
REMARK   77  A    between atoms: _168  and  _169
REMARK   78  A    between atoms: _168  and  _171
REMARK   79  A    between atoms: _171  and  _172
REMARK   80  A    between atoms: _172  and  _173
REMARK   81  A    between atoms: _176  and  _178
REMARK   82  A    between atoms: _178  and  _179
REMARK   83  A    between atoms: _178  and  _181
REMARK   84  A    between atoms: _184  and  _186
REMARK   85  A    between atoms: _186  and  _187
REMARK   86  A    between atoms: _186  and  _189
REMARK   87  A    between atoms: _189  and  _190
REMARK   88  A    between atoms: _193  and  _195
REMARK   89  A    between atoms: _195  and  _196
REMARK   90  A    between atoms: _195  and  _198
REMARK   91  A    between atoms: _198  and  _199
REMARK   92  A    between atoms: _199  and  _200
REMARK   93  A    between atoms: _202  and  _204
REMARK   94  A    between atoms: _204  and  _205
REMARK   95  A    between atoms: _204  and  _207
REMARK   96  A    between atoms: _207  and  _208
REMARK   97  A    between atoms: _208  and  _209
REMARK   98  A    between atoms: _209  and  _210
REMARK   99  A    between atoms: _219  and  _221
REMARK  100  A    between atoms: _221  and  _222
REMARK  101  A    between atoms: _221  and  _224
REMARK  102  A    between atoms: _224  and  _225
REMARK  103  A    between atoms: _230  and  _231
REMARK  104  A    between atoms: _233  and  _235
REMARK  105  A    between atoms: _235  and  _236
REMARK  106  A    between atoms: _235  and  _238
REMARK  107  A    between atoms: _241  and  _243
REMARK  108  A    between atoms: _243  and  _244
REMARK  109  A    between atoms: _243  and  _246
REMARK  110  A    between atoms: _249  and  _251
REMARK  111  A    between atoms: _251  and  _252
REMARK  112  A    between atoms: _251  and  _254
REMARK  113  A    between atoms: _254  and  _255
REMARK  114  A    between atoms: _255  and  _256
REMARK  115  A    between atoms: _259  and  _261
REMARK  116  A    between atoms: _261  and  _262
REMARK  117  A    between atoms: _261  and  _264
REMARK  118  A    between atoms: _264  and  _265
REMARK  119  A    between atoms: _265  and  _266
REMARK  120  A    between atoms: _268  and  _270
REMARK  121  A    between atoms: _270  and  _271
REMARK  122  A    between atoms: _270  and  _273
REMARK  123  A    between atoms: _273  and  _274
REMARK  124  A    between atoms: _279  and  _280
REMARK  125  A    between atoms: _282  and  _284
REMARK  126  A    between atoms: _284  and  _285
REMARK  127  A    between atoms: _284  and  _287
REMARK  128  A    between atoms: _287  and  _288
REMARK  129  A    between atoms: _293  and  _295
REMARK  130  A    between atoms: _295  and  _296
REMARK  131  A    between atoms: _295  and  _298
REMARK  132  A    between atoms: _301  and  _303
REMARK  133  A    between atoms: _303  and  _304
REMARK  134  A    between atoms: _303  and  _306
REMARK  135  A    between atoms: _309  and  _311
REMARK  136  A    between atoms: _311  and  _312
REMARK  137  A    between atoms: _311  and  _314
REMARK  138  A    between atoms: _314  and  _315
REMARK  139  A    between atoms: _315  and  _316
REMARK  140  A    between atoms: _318  and  _320
REMARK  141  A    between atoms: _320  and  _321
REMARK  142  A    between atoms: _320  and  _323
REMARK  143  A    between atoms: _323  and  _324
REMARK  144  A    between atoms: _324  and  _325
REMARK  145  A    between atoms: _328  and  _330
REMARK  146  A    between atoms: _330  and  _331
REMARK  147  A    between atoms: _330  and  _333
REMARK  148  A    between atoms: _333  and  _334
REMARK  149  A    between atoms: _340  and  _342
REMARK  150  A    between atoms: _342  and  _343
REMARK  151  A    between atoms: _342  and  _345
REMARK  152  A    between atoms: _345  and  _346
REMARK  153  A    between atoms: _349  and  _351
REMARK  154  A    between atoms: _351  and  _352
REMARK  155  A    between atoms: _351  and  _354
REMARK  156  A    between atoms: _354  and  _355
REMARK  157  A    between atoms: _355  and  _356
REMARK  158  A    between atoms: _359  and  _361
REMARK  159  A    between atoms: _361  and  _362
REMARK  160  A    between atoms: _364  and  _366
REMARK  161  A    between atoms: _366  and  _367
REMARK  162  A    between atoms: _369  and  _371
REMARK  163  A    between atoms: _371  and  _372
REMARK  164  A    between atoms: _375  and  _377
REMARK  165  A    between atoms: _377  and  _378
REMARK  166  A    between atoms: _377  and  _380
REMARK  167  A    between atoms: _380  and  _381
REMARK  168  A    between atoms: _386  and  _388
REMARK  169  A    between atoms: _388  and  _389
REMARK  170  A    between atoms: _388  and  _391
REMARK  171  A    between atoms: _391  and  _392
REMARK  172  A    between atoms: _395  and  _397
REMARK  173  A    between atoms: _397  and  _398
REMARK  174  A    between atoms: _397  and  _400
REMARK  175  A    between atoms: _400  and  _401
REMARK  176  A    between atoms: _403  and  _405
REMARK  177  A    between atoms: _405  and  _406
REMARK  178  A    between atoms: _405  and  _408
REMARK  179  A    between atoms: _408  and  _409
REMARK  180  A    between atoms: _412  and  _414
REMARK  181  A    between atoms: _414  and  _415
REMARK  182  A    between atoms: _414  and  _417
REMARK  183  A    between atoms: _417  and  _418
REMARK  184  A    between atoms: _421  and  _423
REMARK  185  A    between atoms: _423  and  _424
REMARK  186  A    between atoms: _423  and  _426
REMARK  187  A    between atoms: _426  and  _427
REMARK  188  A    between atoms: _430  and  _432
REMARK  189  A    between atoms: _432  and  _433
REMARK  190  A    between atoms: _432  and  _435
REMARK  191  A    between atoms: _435  and  _436
REMARK  192  A    between atoms: _439  and  _441
REMARK  193  A    between atoms: _441  and  _442
REMARK  194  A    between atoms: _441  and  _444
REMARK  195  A    between atoms: _444  and  _445
REMARK  196  A    between atoms: _447  and  _449
REMARK  197  A    between atoms: _449  and  _450
REMARK  198  A    between atoms: _449  and  _452
REMARK  199  A    between atoms: _452  and  _453
REMARK  200  A    between atoms: _456  and  _458
REMARK  201  A    between atoms: _458  and  _459
REMARK  202  A    between atoms: _458  and  _461
REMARK  203  A    between atoms: _461  and  _462
REMARK  204  A    between atoms: _468  and  _470
REMARK  205  A    between atoms: _470  and  _471
REMARK  206  A    between atoms: _473  and  _475
REMARK  207  A    between atoms: _475  and  _476
REMARK  208  A    between atoms: _475  and  _478
REMARK  209  A    between atoms: _478  and  _479
REMARK  210  A    between atoms: _485  and  _487
REMARK  211  A    between atoms: _487  and  _488
REMARK  212  A    between atoms: _487  and  _490
REMARK                            x       y       z     vdW  Elec       q    Type
REMARK                         _______ _______ _______ _____ _____    ______ ____
ROOT
ATOM      1  CB  HIS A   1     -25.767   9.727   8.470  0.00  0.00    +0.072 C 
ENDROOT
BRANCH   1   2
ATOM      2  CG  HIS A   1     -25.059   8.455   8.828  0.00  0.00    +0.082 A 
ATOM      3  CD2 HIS A   1     -25.228   7.603   9.868  0.00  0.00    +0.115 A 
ATOM      4  NE2 HIS A   1     -24.314   6.588   9.714  0.00  0.00    -0.221 NA
ATOM      5  CE1 HIS A   1     -23.611   6.807   8.617  0.00  0.00    +0.199 A 
ATOM      6  ND1 HIS A   1     -24.042   7.927   8.062  0.00  0.00    -0.227 NA
ENDBRANCH   1   2
BRANCH   1   7
ATOM      7  CA  HIS A   1     -24.999  10.994   8.856  0.00  0.00    +0.139 C 
BRANCH   7   8
ATOM      8  N   HIS A   1     -25.827  12.180   8.639  0.00  0.00    -0.239 NA
ATOM      9  H   HIS A   1     -26.752  12.073   8.177  0.00  0.00    +0.142 HD
ENDBRANCH   7   8
BRANCH   7  10
ATOM     10  C   HIS A   1     -23.708  11.091   8.051  0.00  0.00    +0.224 C 
ATOM     11  O   HIS A   1     -22.612  10.969   8.602  0.00  0.00    -0.287 OA
ENDBRANCH   7  10
ENDBRANCH   1   7
TORSDOF 4
REMARK  Name = ../refined-set-2016/4o0x/4o0x_pocket.pdb
REMARK  212 active torsions:
REMARK  status: ('A' for Active; 'I' for Inactive)
REMARK    1  A    between atoms: _1  and  _3
REMARK    2  A    between atoms: _3  and  _4
REMARK    3  A    between atoms: _3  and  _6
REMARK    4  A    between atoms: _6  and  _7
REMARK    5  A    between atoms: _7  and  _8
REMARK    6  A    between atoms: _8  and  _9
REMARK    7  A    between atoms: _9  and  _10
REMARK    8  A    between atoms: _14  and  _16
REMARK    9  A    between atoms: _16  and  _17
REMARK   10  A    between atoms: _16  and  _19
REMARK   11  A    between atoms: _19  and  _20
REMARK   12  A    between atoms: _23  and  _25
REMARK   13  A    between atoms: _25  and  _26
REMARK   14  A    between atoms: _28  and  _30
REMARK   15  A    between atoms: _30  and  _31
REMARK   16  A    between atoms: _30  and  _33
REMARK   17  A    between atoms: _33  and  _34
REMARK   18  A    between atoms: _34  and  _35
REMARK   19  A    between atoms: _38  and  _40
REMARK   20  A    between atoms: _40  and  _41
REMARK   21  A    between atoms: _43  and  _45
REMARK   22  A    between atoms: _45  and  _46
REMARK   23  A    between atoms: _45  and  _48
REMARK   24  A    between atoms: _48  and  _49
REMARK   25  A    between atoms: _51  and  _53
REMARK   26  A    between atoms: _53  and  _54
REMARK   27  A    between atoms: _53  and  _56
REMARK   28  A    between atoms: _56  and  _57
REMARK   29  A    between atoms: _60  and  _62
REMARK   30  A    between atoms: _62  and  _63
REMARK   31  A    between atoms: _65  and  _67
REMARK   32  A    between atoms: _67  and  _68
REMARK   33  A    between atoms: _67  and  _70
REMARK   34  A    between atoms: _70  and  _71
REMARK   35  A    between atoms: _74  and  _76
REMARK   36  A    between atoms: _76  and  _77
REMARK   37  A    between atoms: _76  and  _79
REMARK   38  A    between atoms: _82  and  _84
REMARK   39  A    between atoms: _84  and  _85
REMARK   40  A    between atoms: _84  and  _87
REMARK   41  A    between atoms: _89  and  _91
REMARK   42  A    between atoms: _91  and  _92
REMARK   43  A    between atoms: _91  and  _94
REMARK   44  A    between atoms: _94  and  _95
REMARK   45  A    between atoms: _98  and  _100
REMARK   46  A    between atoms: _100  and  _101
REMARK   47  A    between atoms: _100  and  _103
REMARK   48  A    between atoms: _106  and  _108
REMARK   49  A    between atoms: _108  and  _109
REMARK   50  A    between atoms: _112  and  _114
REMARK   51  A    between atoms: _114  and  _115
REMARK   52  A    between atoms: _114  and  _117
REMARK   53  A    between atoms: _120  and  _122
REMARK   54  A    between atoms: _122  and  _123
REMARK   55  A    between atoms: _122  and  _125
REMARK   56  A    between atoms: _125  and  _126
REMARK   57  A    between atoms: _126  and  _127
REMARK   58  A    between atoms: _127  and  _128
REMARK   59  A    between atoms: _128  and  _129
REMARK   60  A    between atoms: _133  and  _135
REMARK   61  A    between atoms: _135  and  _136
REMARK   62  A    between atoms: _135  and  _138
REMARK   63  A    between atoms: _138  and  _139
REMARK   64  A    between atoms: _139  and  _140
REMARK   65  A    between atoms: _140  and  _141
REMARK   66  A    between atoms: _141  and  _142
REMARK   67  A    between atoms: _146  and  _148
REMARK   68  A    between atoms: _148  and  _149
REMARK   69  A    between atoms: _148  and  _151
REMARK   70  A    between atoms: _151  and  _152
REMARK   71  A    between atoms: _152  and  _153
REMARK   72  A    between atoms: _155  and  _157
REMARK   73  A    between atoms: _157  and  _158
REMARK   74  A    between atoms: _157  and  _160
REMARK   75  A    between atoms: _160  and  _161
REMARK   76  A    between atoms: _166  and  _168
REMARK   77  A    between atoms: _168  and  _169
REMARK   78  A    between atoms: _168  and  _171
REMARK   79  A    between atoms: _171  and  _172
REMARK   80  A    between atoms: _172  and  _173
REMARK   81  A    between atoms: _176  and  _178
REMARK   82  A    between atoms: _178  and  _179
REMARK   83  A    between atoms: _178  and  _181
REMARK   84  A    between atoms: _184  and  _186
REMARK   85  A    between atoms: _186  and  _187
REMARK   86  A    between atoms: _186  and  _189
REMARK   87  A    between atoms: _189  and  _190
REMARK   88  A    between atoms: _193  and  _195
REMARK   89  A    between atoms: _195  and  _196
REMARK   90  A    between atoms: _195  and  _198
REMARK   91  A    between atoms: _198  and  _199
REMARK   92  A    between atoms: _199  and  _200
REMARK   93  A    between atoms: _202  and  _204
REMARK   94  A    between atoms: _204  and  _205
REMARK   95  A    between atoms: _204  and  _207
REMARK   96  A    between atoms: _207  and  _208
REMARK   97  A    between atoms: _208  and  _209
REMARK   98  A    between atoms: _209  and  _210
REMARK   99  A    between atoms: _219  and  _221
REMARK  100  A    between atoms: _221  and  _222
REMARK  101  A    between atoms: _221  and  _224
REMARK  102  A    between atoms: _224  and  _225
REMARK  103  A    between atoms: _230  and  _231
REMARK  104  A    between atoms: _233  and  _235
REMARK  105  A    between atoms: _235  and  _236
REMARK  106  A    between atoms: _235  and  _238
REMARK  107  A    between atoms: _241  and  _243
REMARK  108  A    between atoms: _243  and  _244
REMARK  109  A    between atoms: _243  and  _246
REMARK  110  A    between atoms: _249  and  _251
REMARK  111  A    between atoms: _251  and  _252
REMARK  112  A    between atoms: _251  and  _254
REMARK  113  A    between atoms: _254  and  _255
REMARK  114  A    between atoms: _255  and  _256
REMARK  115  A    between atoms: _259  and  _261
REMARK  116  A    between atoms: _261  and  _262
REMARK  117  A    between atoms: _261  and  _264
REMARK  118  A    between atoms: _264  and  _265
REMARK  119  A    between atoms: _265  and  _266
REMARK  120  A    between atoms: _268  and  _270
REMARK  121  A    between atoms: _270  and  _271
REMARK  122  A    between atoms: _270  and  _273
REMARK  123  A    between atoms: _273  and  _274
REMARK  124  A    between atoms: _279  and  _280
REMARK  125  A    between atoms: _282  and  _284
REMARK  126  A    between atoms: _284  and  _285
REMARK  127  A    between atoms: _284  and  _287
REMARK  128  A    between atoms: _287  and  _288
REMARK  129  A    between atoms: _293  and  _295
REMARK  130  A    between atoms: _295  and  _296
REMARK  131  A    between atoms: _295  and  _298
REMARK  132  A    between atoms: _301  and  _303
REMARK  133  A    between atoms: _303  and  _304
REMARK  134  A    between atoms: _303  and  _306
REMARK  135  A    between atoms: _309  and  _311
REMARK  136  A    between atoms: _311  and  _312
REMARK  137  A    between atoms: _311  and  _314
REMARK  138  A    between atoms: _314  and  _315
REMARK  139  A    between atoms: _315  and  _316
REMARK  140  A    between atoms: _318  and  _320
REMARK  141  A    between atoms: _320  and  _321
REMARK  142  A    between atoms: _320  and  _323
REMARK  143  A    between atoms: _323  and  _324
REMARK  144  A    between atoms: _324  and  _325
REMARK  145  A    between atoms: _328  and  _330
REMARK  146  A    between atoms: _330  and  _331
REMARK  147  A    between atoms: _330  and  _333
REMARK  148  A    between atoms: _333  and  _334
REMARK  149  A    between atoms: _340  and  _342
REMARK  150  A    between atoms: _342  and  _343
REMARK  151  A    between atoms: _342  and  _345
REMARK  152  A    between atoms: _345  and  _346
REMARK  153  A    between atoms: _349  and  _351
REMARK  154  A    between atoms: _351  and  _352
REMARK  155  A    between atoms: _351  and  _354
REMARK  156  A    between atoms: _354  and  _355
REMARK  157  A    between atoms: _355  and  _356
REMARK  158  A    between atoms: _359  and  _361
REMARK  159  A    between atoms: _361  and  _362
REMARK  160  A    between atoms: _364  and  _366
REMARK  161  A    between atoms: _366  and  _367
REMARK  162  A    between atoms: _369  and  _371
REMARK  163  A    between atoms: _371  and  _372
REMARK  164  A    between atoms: _375  and  _377
REMARK  165  A    between atoms: _377  and  _378
REMARK  166  A    between atoms: _377  and  _380
REMARK  167  A    between atoms: _380  and  _381
REMARK  168  A    between atoms: _386  and  _388
REMARK  169  A    between atoms: _388  and  _389
REMARK  170  A    between atoms: _388  and  _391
REMARK  171  A    between atoms: _391  and  _392
REMARK  172  A    between atoms: _395  and  _397
REMARK  173  A    between atoms: _397  and  _398
REMARK  174  A    between atoms: _397  and  _400
REMARK  175  A    between atoms: _400  and  _401
REMARK  176  A    between atoms: _403  and  _405
REMARK  177  A    between atoms: _405  and  _406
REMARK  178  A    between atoms: _405  and  _408
REMARK  179  A    between atoms: _408  and  _409
REMARK  180  A    between atoms: _412  and  _414
REMARK  181  A    between atoms: _414  and  _415
REMARK  182  A    between atoms: _414  and  _417
REMARK  183  A    between atoms: _417  and  _418
REMARK  184  A    between atoms: _421  and  _423
REMARK  185  A    between atoms: _423  and  _424
REMARK  186  A    between atoms: _423  and  _426
REMARK  187  A    between atoms: _426  and  _427
REMARK  188  A    between atoms: _430  and  _432
REMARK  189  A    between atoms: _432  and  _433
REMARK  190  A    between atoms: _432  and  _435
REMARK  191  A    between atoms: _435  and  _436
REMARK  192  A    between atoms: _439  and  _441
REMARK  193  A    between atoms: _441  and  _442
REMARK  194  A    between atoms: _441  and  _444
REMARK  195  A    between atoms: _444  and  _445
REMARK  196  A    between atoms: _447  and  _449
REMARK  197  A    between atoms: _449  and  _450
REMARK  198  A    between atoms: _449  and  _452
REMARK  199  A    between atoms: _452  and  _453
REMARK  200  A    between atoms: _456  and  _458
REMARK  201  A    between atoms: _458  and  _459
REMARK  202  A    between atoms: _458  and  _461
REMARK  203  A    between atoms: _461  and  _462
REMARK  204  A    between atoms: _468  and  _470
REMARK  205  A    between atoms: _470  and  _471
REMARK  206  A    between atoms: _473  and  _475
REMARK  207  A    between atoms: _475  and  _476
REMARK  208  A    between atoms: _475  and  _478
REMARK  209  A    between atoms: _478  and  _479
REMARK  210  A    between atoms: _485  and  _487
REMARK  211  A    between atoms: _487  and  _488
REMARK  212  A    between atoms: _487  and  _490
REMARK                            x       y       z     vdW  Elec       q    Type
REMARK                         _______ _______ _______ _____ _____    ______ ____
ROOT
ATOM      1  CA  ILE A   3     -26.758  -0.872   8.616  0.00  0.00    +0.149 C 
ENDROOT
BRANCH   1   4
ATOM      2  C   SER A   2     -25.017   0.809   8.793  0.00  0.00    +0.243 C 
ATOM      3  O   SER A   2     -25.677   1.462   9.599  0.00  0.00    -0.273 OA
ATOM      4  N   ILE A   3     -25.451  -0.331   8.267  0.00  0.00    -0.297 N 
ATOM      5  H   ILE A   3     -24.848  -0.846   7.595  0.00  0.00    +0.150 HD
BRANCH   2   6
ATOM      6  CA  SER A   2     -23.638   1.292   8.349  0.00  0.00    +0.178 C 
BRANCH   6   9
ATOM      7  C   ASP A   1     -22.347  -0.615   7.539  0.00  0.00    +0.239 C 
ATOM      8  O   ASP A   1     -22.150  -1.054   8.671  0.00  0.00    -0.274 OA
ATOM      9  N   SER A   2     -23.061   0.480   7.294  0.00  0.00    -0.295 N 
ATOM     10  H   SER A   2     -23.212   0.766   6.306  0.00  0.00    +0.150 HD
BRANCH   7  11
ATOM     11  CA  ASP A   1     -21.772  -1.315   6.315  0.00  0.00    +0.156 C 
BRANCH  11  12
ATOM     12  N   ASP A   1     -22.625  -1.079   5.147  0.00  0.00    -0.238 NA
ATOM     13  H   ASP A   1     -22.238  -0.560   4.333  0.00  0.00    +0.142 HD
ENDBRANCH  11  12
BRANCH  11  14
ATOM     14  CB  ASP A   1     -20.351  -0.799   6.065  0.00  0.00    +0.140 C 
BRANCH  14  15
ATOM     15  CG  ASP A   1     -19.711  -1.406   4.829  0.00  0.00    +0.367 C 
ATOM     16  OD2 ASP A   1     -18.750  -2.189   4.988  0.00  0.00    -0.246 OA
ATOM     17  OD1 ASP A   1     -20.167  -1.099   3.700  0.00  0.00    -0.246 OA
ENDBRANCH  14  15
ENDBRANCH  11  14
ENDBRANCH   7  11
ENDBRANCH   6   9
BRANCH   6  18
ATOM     18  CB  SER A   2     -23.726   2.740   7.886  0.00  0.00    +0.166 C 
BRANCH  18  19
ATOM     19  OG  SER A   2     -22.481   3.166   7.370  0.00  0.00    -0.380 OA
ATOM     20  H   SER A   2     -22.553   4.108   7.073  0.00  0.00    +0.211 HD
ENDBRANCH  18  19
ENDBRANCH   6  18
ENDBRANCH   2   6
ENDBRANCH   1   4
BRANCH   1  21
ATOM     21  C   ILE A   3     -26.638  -2.180   9.389  0.00  0.00    +0.241 C 
ATOM     22  N   LEU A   4     -26.939  -2.137  10.683  0.00  0.00    -0.297 N 
ATOM     23  H   LEU A   4     -27.266  -1.244  11.103  0.00  0.00    +0.150 HD
ATOM     24  O   ILE A   3     -26.284  -3.211   8.824  0.00  0.00    -0.273 OA
BRANCH  22  25
ATOM     25  CA  LEU A   4     -26.818  -3.323  11.523  0.00  0.00    +0.149 C 
BRANCH  25  26
ATOM     26  C   LEU A   4     -28.175  -3.975  11.797  0.00  0.00    +0.241 C 
ATOM     27  N   LEU A   5     -28.150  -5.275  12.089  0.00  0.00    -0.298 N 
ATOM     28  H   LEU A   5     -27.231  -5.755  12.171  0.00  0.00    +0.150 HD
ATOM     29  O   LEU A   4     -29.218  -3.315  11.742  0.00  0.00    -0.273 OA
BRANCH  27  30
ATOM     30  CA  LEU A   5     -29.373  -6.046  12.297  0.00  0.00    +0.137 C 
BRANCH  30  31
ATOM     31  C   LEU A   5     -29.417  -6.710  13.669  0.00  0.00    +0.227 C 
ATOM     32  O   LEU A   5     -28.376  -7.055  14.230  0.00  0.00    -0.286 OA
ENDBRANCH  30  31
BRANCH  30  33
ATOM     33  CB  LEU A   5     -29.516  -7.135  11.225  0.00  0.00    +0.028 C 
BRANCH  33  34
ATOM     34  CG  LEU A   5     -29.520  -6.755   9.737  0.00  0.00    +0.002 C 
ATOM     35  CD2 LEU A   5     -30.404  -5.553   9.451  0.00  0.00    +0.000 C 
ATOM     36  CD1 LEU A   5     -29.966  -7.938   8.906  0.00  0.00    +0.000 C 
ENDBRANCH  33  34
ENDBRANCH  30  33
ENDBRANCH  27  30
ENDBRANCH  25  26
BRANCH  25  37
ATOM     37  CB  LEU A   4     -26.093  -2.975  12.824  0.00  0.00    +0.029 C 
BRANCH  37  38
ATOM     38  CG  LEU A   4     -24.687  -2.410  12.597  0.00  0.00    +0.002 C 
ATOM     39  CD2 LEU A   4     -23.973  -2.045  13.905  0.00  0.00    +0.000 C 
ATOM     40  CD1 LEU A   4     -23.858  -3.395  11.786  0.00  0.00    +0.000 C 
ENDBRANCH  37  38
ENDBRANCH  25  37
ENDBRANCH  22  25
ENDBRANCH   1  21
BRANCH   1  41
ATOM     41  CB  ILE A   3     -27.611  -1.127   7.362  0.00  0.00    +0.027 C 
ATOM     42  CG2 ILE A   3     -28.992  -1.649   7.747  0.00  0.00    +0.002 C 
BRANCH  41  43
ATOM     43  CG1 ILE A   3     -27.684   0.133   6.484  0.00  0.00    +0.002 C 
ATOM     44  CD1 ILE A   3     -28.251   1.355   7.171  0.00  0.00    +0.000 C 
ENDBRANCH  41  43
ENDBRANCH   1  41
TORSDOF 20
REMARK  Name = ../refined-set-2016/4o0x/4o0x_pocket.pdb
REMARK  212 active torsions:
REMARK  status: ('A' for Active; 'I' for Inactive)
REMARK    1  A    between atoms: _1  and  _3
REMARK    2  A    between atoms: _3  and  _4
REMARK    3  A    between atoms: _3  and  _6
REMARK    4  A    between atoms: _6  and  _7
REMARK    5  A    between atoms: _7  and  _8
REMARK    6  A    between atoms: _8  and  _9
REMARK    7  A    between atoms: _9  and  _10
REMARK    8  A    between atoms: _14  and  _16
REMARK    9  A    between atoms: _16  and  _17
REMARK   10  A    between atoms: _16  and  _19
REMARK   11  A    between atoms: _19  and  _20
REMARK   12  A    between atoms: _23  and  _25
REMARK   13  A    between atoms: _25  and  _26
REMARK   14  A    between atoms: _28  and  _30
REMARK   15  A    between atoms: _30  and  _31
REMARK   16  A    between atoms: _30  and  _33
REMARK   17  A    between atoms: _33  and  _34
REMARK   18  A    between atoms: _34  and  _35
REMARK   19  A    between atoms: _38  and  _40
REMARK   20  A    between atoms: _40  and  _41
REMARK   21  A    between atoms: _43  and  _45
REMARK   22  A    between atoms: _45  and  _46
REMARK   23  A    between atoms: _45  and  _48
REMARK   24  A    between atoms: _48  and  _49
REMARK   25  A    between atoms: _51  and  _53
REMARK   26  A    between atoms: _53  and  _54
REMARK   27  A    between atoms: _53  and  _56
REMARK   28  A    between atoms: _56  and  _57
REMARK   29  A    between atoms: _60  and  _62
REMARK   30  A    between atoms: _62  and  _63
REMARK   31  A    between atoms: _65  and  _67
REMARK   32  A    between atoms: _67  and  _68
REMARK   33  A    between atoms: _67  and  _70
REMARK   34  A    between atoms: _70  and  _71
REMARK   35  A    between atoms: _74  and  _76
REMARK   36  A    between atoms: _76  and  _77
REMARK   37  A    between atoms: _76  and  _79
REMARK   38  A    between atoms: _82  and  _84
REMARK   39  A    between atoms: _84  and  _85
REMARK   40  A    between atoms: _84  and  _87
REMARK   41  A    between atoms: _89  and  _91
REMARK   42  A    between atoms: _91  and  _92
REMARK   43  A    between atoms: _91  and  _94
REMARK   44  A    between atoms: _94  and  _95
REMARK   45  A    between atoms: _98  and  _100
REMARK   46  A    between atoms: _100  and  _101
REMARK   47  A    between atoms: _100  and  _103
REMARK   48  A    between atoms: _106  and  _108
REMARK   49  A    between atoms: _108  and  _109
REMARK   50  A    between atoms: _112  and  _114
REMARK   51  A    between atoms: _114  and  _115
REMARK   52  A    between atoms: _114  and  _117
REMARK   53  A    between atoms: _120  and  _122
REMARK   54  A    between atoms: _122  and  _123
REMARK   55  A    between atoms: _122  and  _125
REMARK   56  A    between atoms: _125  and  _126
REMARK   57  A    between atoms: _126  and  _127
REMARK   58  A    between atoms: _127  and  _128
REMARK   59  A    between atoms: _128  and  _129
REMARK   60  A    between atoms: _133  and  _135
REMARK   61  A    between atoms: _135  and  _136
REMARK   62  A    between atoms: _135  and  _138
REMARK   63  A    between atoms: _138  and  _139
REMARK   64  A    between atoms: _139  and  _140
REMARK   65  A    between atoms: _140  and  _141
REMARK   66  A    between atoms: _141  and  _142
REMARK   67  A    between atoms: _146  and  _148
REMARK   68  A    between atoms: _148  and  _149
REMARK   69  A    between atoms: _148  and  _151
REMARK   70  A    between atoms: _151  and  _152
REMARK   71  A    between atoms: _152  and  _153
REMARK   72  A    between atoms: _155  and  _157
REMARK   73  A    between atoms: _157  and  _158
REMARK   74  A    between atoms: _157  and  _160
REMARK   75  A    between atoms: _160  and  _161
REMARK   76  A    between atoms: _166  and  _168
REMARK   77  A    between atoms: _168  and  _169
REMARK   78  A    between atoms: _168  and  _171
REMARK   79  A    between atoms: _171  and  _172
REMARK   80  A    between atoms: _172  and  _173
REMARK   81  A    between atoms: _176  and  _178
REMARK   82  A    between atoms: _178  and  _179
REMARK   83  A    between atoms: _178  and  _181
REMARK   84  A    between atoms: _184  and  _186
REMARK   85  A    between atoms: _186  and  _187
REMARK   86  A    between atoms: _186  and  _189
REMARK   87  A    between atoms: _189  and  _190
REMARK   88  A    between atoms: _193  and  _195
REMARK   89  A    between atoms: _195  and  _196
REMARK   90  A    between atoms: _195  and  _198
REMARK   91  A    between atoms: _198  and  _199
REMARK   92  A    between atoms: _199  and  _200
REMARK   93  A    between atoms: _202  and  _204
REMARK   94  A    between atoms: _204  and  _205
REMARK   95  A    between atoms: _204  and  _207
REMARK   96  A    between atoms: _207  and  _208
REMARK   97  A    between atoms: _208  and  _209
REMARK   98  A    between atoms: _209  and  _210
REMARK   99  A    between atoms: _219  and  _221
REMARK  100  A    between atoms: _221  and  _222
REMARK  101  A    between atoms: _221  and  _224
REMARK  102  A    between atoms: _224  and  _225
REMARK  103  A    between atoms: _230  and  _231
REMARK  104  A    between atoms: _233  and  _235
REMARK  105  A    between atoms: _235  and  _236
REMARK  106  A    between atoms: _235  and  _238
REMARK  107  A    between atoms: _241  and  _243
REMARK  108  A    between atoms: _243  and  _244
REMARK  109  A    between atoms: _243  and  _246
REMARK  110  A    between atoms: _249  and  _251
REMARK  111  A    between atoms: _251  and  _252
REMARK  112  A    between atoms: _251  and  _254
REMARK  113  A    between atoms: _254  and  _255
REMARK  114  A    between atoms: _255  and  _256
REMARK  115  A    between atoms: _259  and  _261
REMARK  116  A    between atoms: _261  and  _262
REMARK  117  A    between atoms: _261  and  _264
REMARK  118  A    between atoms: _264  and  _265
REMARK  119  A    between atoms: _265  and  _266
REMARK  120  A    between atoms: _268  and  _270
REMARK  121  A    between atoms: _270  and  _271
REMARK  122  A    between atoms: _270  and  _273
REMARK  123  A    between atoms: _273  and  _274
REMARK  124  A    between atoms: _279  and  _280
REMARK  125  A    between atoms: _282  and  _284
REMARK  126  A    between atoms: _284  and  _285
REMARK  127  A    between atoms: _284  and  _287
REMARK  128  A    between atoms: _287  and  _288
REMARK  129  A    between atoms: _293  and  _295
REMARK  130  A    between atoms: _295  and  _296
REMARK  131  A    between atoms: _295  and  _298
REMARK  132  A    between atoms: _301  and  _303
REMARK  133  A    between atoms: _303  and  _304
REMARK  134  A    between atoms: _303  and  _306
REMARK  135  A    between atoms: _309  and  _311
REMARK  136  A    between atoms: _311  and  _312
REMARK  137  A    between atoms: _311  and  _314
REMARK  138  A    between atoms: _314  and  _315
REMARK  139  A    between atoms: _315  and  _316
REMARK  140  A    between atoms: _318  and  _320
REMARK  141  A    between atoms: _320  and  _321
REMARK  142  A    between atoms: _320  and  _323
REMARK  143  A    between atoms: _323  and  _324
REMARK  144  A    between atoms: _324  and  _325
REMARK  145  A    between atoms: _328  and  _330
REMARK  146  A    between atoms: _330  and  _331
REMARK  147  A    between atoms: _330  and  _333
REMARK  148  A    between atoms: _333  and  _334
REMARK  149  A    between atoms: _340  and  _342
REMARK  150  A    between atoms: _342  and  _343
REMARK  151  A    between atoms: _342  and  _345
REMARK  152  A    between atoms: _345  and  _346
REMARK  153  A    between atoms: _349  and  _351
REMARK  154  A    between atoms: _351  and  _352
REMARK  155  A    between atoms: _351  and  _354
REMARK  156  A    between atoms: _354  and  _355
REMARK  157  A    between atoms: _355  and  _356
REMARK  158  A    between atoms: _359  and  _361
REMARK  159  A    between atoms: _361  and  _362
REMARK  160  A    between atoms: _364  and  _366
REMARK  161  A    between atoms: _366  and  _367
REMARK  162  A    between atoms: _369  and  _371
REMARK  163  A    between atoms: _371  and  _372
REMARK  164  A    between atoms: _375  and  _377
REMARK  165  A    between atoms: _377  and  _378
REMARK  166  A    between atoms: _377  and  _380
REMARK  167  A    between atoms: _380  and  _381
REMARK  168  A    between atoms: _386  and  _388
REMARK  169  A    between atoms: _388  and  _389
REMARK  170  A    between atoms: _388  and  _391
REMARK  171  A    between atoms: _391  and  _392
REMARK  172  A    between atoms: _395  and  _397
REMARK  173  A    between atoms: _397  and  _398
REMARK  174  A    between atoms: _397  and  _400
REMARK  175  A    between atoms: _400  and  _401
REMARK  176  A    between atoms: _403  and  _405
REMARK  177  A    between atoms: _405  and  _406
REMARK  178  A    between atoms: _405  and  _408
REMARK  179  A    between atoms: _408  and  _409
REMARK  180  A    between atoms: _412  and  _414
REMARK  181  A    between atoms: _414  and  _415
REMARK  182  A    between atoms: _414  and  _417
REMARK  183  A    between atoms: _417  and  _418
REMARK  184  A    between atoms: _421  and  _423
REMARK  185  A    between atoms: _423  and  _424
REMARK  186  A    between atoms: _423  and  _426
REMARK  187  A    between atoms: _426  and  _427
REMARK  188  A    between atoms: _430  and  _432
REMARK  189  A    between atoms: _432  and  _433
REMARK  190  A    between atoms: _432  and  _435
REMARK  191  A    between atoms: _435  and  _436
REMARK  192  A    between atoms: _439  and  _441
REMARK  193  A    between atoms: _441  and  _442
REMARK  194  A    between atoms: _441  and  _444
REMARK  195  A    between atoms: _444  and  _445
REMARK  196  A    between atoms: _447  and  _449
REMARK  197  A    between atoms: _449  and  _450
REMARK  198  A    between atoms: _449  and  _452
REMARK  199  A    between atoms: _452  and  _453
REMARK  200  A    between atoms: _456  and  _458
REMARK  201  A    between atoms: _458  and  _459
REMARK  202  A    between atoms: _458  and  _461
REMARK  203  A    between atoms: _461  and  _462
REMARK  204  A    between atoms: _468  and  _470
REMARK  205  A    between atoms: _470  and  _471
REMARK  206  A    between atoms: _473  and  _475
REMARK  207  A    between atoms: _475  and  _476
REMARK  208  A    between atoms: _475  and  _478
REMARK  209  A    between atoms: _478  and  _479
REMARK  210  A    between atoms: _485  and  _487
REMARK  211  A    between atoms: _487  and  _488
REMARK  212  A    between atoms: _487  and  _490
REMARK                            x       y       z     vdW  Elec       q    Type
REMARK                         _______ _______ _______ _____ _____    ______ ____
ROOT
ATOM      1  CA  PHE A   4     -21.944   8.180  13.043  0.00  0.00    +0.153 C 
ENDROOT
BRANCH   1   2
ATOM      2  C   PHE A   4     -20.613   8.893  13.179  0.00  0.00    +0.241 C 
ATOM      3  O   PHE A   4     -20.562  10.059  13.565  0.00  0.00    -0.273 OA
ATOM      4  N   GLY A   5     -19.533   8.186  12.866  0.00  0.00    -0.295 N 
ATOM      5  H   GLY A   5     -19.648   7.222  12.492  0.00  0.00    +0.150 HD
BRANCH   4   6
ATOM      6  CA  GLY A   5     -18.196   8.727  13.033  0.00  0.00    +0.176 C 
BRANCH   6   7
ATOM      7  C   GLY A   5     -17.914   9.910  12.132  0.00  0.00    +0.243 C 
ATOM      8  O   GLY A   5     -17.036  10.723  12.432  0.00  0.00    -0.273 OA
ATOM      9  N   PHE A   6     -18.661  10.012  11.031  0.00  0.00    -0.297 N 
ATOM     10  H   PHE A   6     -19.390   9.293  10.846  0.00  0.00    +0.150 HD
BRANCH   9  11
ATOM     11  CA  PHE A   6     -18.483  11.107  10.077  0.00  0.00    +0.153 C 
BRANCH  11  12
ATOM     12  C   PHE A   6     -19.571  12.173  10.159  0.00  0.00    +0.241 C 
ATOM     13  N   CYS A   7     -20.509  12.023  11.090  0.00  0.00    -0.297 N 
ATOM     14  H   CYS A   7     -20.415  11.268  11.799  0.00  0.00    +0.150 HD
ATOM     15  O   PHE A   6     -19.558  13.121   9.378  0.00  0.00    -0.273 OA
BRANCH  13  16
ATOM     16  CA  CYS A   7     -21.670  12.908  11.126  0.00  0.00    +0.149 C 
BRANCH  16  17
ATOM     17  C   CYS A   7     -21.323  14.380  11.383  0.00  0.00    +0.228 C 
ATOM     18  O   CYS A   7     -20.238  14.709  11.868  0.00  0.00    -0.286 OA
ENDBRANCH  16  17
BRANCH  16  19
ATOM     19  CB  CYS A   7     -22.734  12.409  12.114  0.00  0.00    +0.096 C 
ATOM     20  SG  CYS A   7     -22.411  12.726  13.860  0.00  0.00    -0.080 S 
ENDBRANCH  16  19
ENDBRANCH  13  16
ENDBRANCH  11  12
BRANCH  11  21
ATOM     21  CB  PHE A   6     -18.426  10.573   8.641  0.00  0.00    +0.055 C 
BRANCH  21  22
ATOM     22  CG  PHE A   6     -17.147   9.869   8.301  0.00  0.00    -0.020 A 
ATOM     23  CD2 PHE A   6     -16.046   9.955   9.136  0.00  0.00    -0.004 A 
ATOM     24  CE2 PHE A   6     -14.864   9.305   8.824  0.00  0.00    -0.000 A 
ATOM     25  CZ  PHE A   6     -14.773   8.564   7.666  0.00  0.00    -0.000 A 
ATOM     26  CE1 PHE A   6     -15.865   8.475   6.819  0.00  0.00    -0.000 A 
ATOM     27  CD1 PHE A   6     -17.042   9.125   7.138  0.00  0.00    -0.004 A 
ENDBRANCH  21  22
ENDBRANCH  11  21
ENDBRANCH   9  11
ENDBRANCH   6   7
ENDBRANCH   4   6
ENDBRANCH   1   2
BRANCH   1  29
ATOM     28  C   ASP A   3     -21.617   5.902  12.251  0.00  0.00    +0.241 C 
ATOM     29  N   PHE A   4     -21.763   6.752  13.264  0.00  0.00    -0.297 N 
ATOM     30  H   PHE A   4     -21.747   6.388  14.238  0.00  0.00    +0.150 HD
ATOM     31  O   ASP A   3     -21.619   6.260  11.074  0.00  0.00    -0.273 OA
BRANCH  28  32
ATOM     32  CA  ASP A   3     -21.416   4.427  12.624  0.00  0.00    +0.160 C 
BRANCH  32  34
ATOM     33  C   SER A   2     -23.748   3.721  12.202  0.00  0.00    +0.243 C 
ATOM     34  N   ASP A   3     -22.653   3.720  12.961  0.00  0.00    -0.296 N 
ATOM     35  H   ASP A   3     -22.679   3.182  13.851  0.00  0.00    +0.150 HD
ATOM     36  O   SER A   2     -23.843   4.343  11.138  0.00  0.00    -0.273 OA
BRANCH  33  37
ATOM     37  CA  SER A   2     -24.912   2.875  12.732  0.00  0.00    +0.178 C 
BRANCH  37  40
ATOM     38  C   LEU A   1     -27.345   2.972  12.496  0.00  0.00    +0.238 C 
ATOM     39  O   LEU A   1     -27.522   3.070  13.710  0.00  0.00    -0.274 OA
ATOM     40  N   SER A   2     -26.136   2.982  11.938  0.00  0.00    -0.295 N 
ATOM     41  H   SER A   2     -26.059   3.069  10.904  0.00  0.00    +0.150 HD
BRANCH  38  42
ATOM     42  CA  LEU A   1     -28.536   2.834  11.542  0.00  0.00    +0.145 C 
BRANCH  42  43
ATOM     43  N   LEU A   1     -29.545   1.970  12.128  0.00  0.00    -0.238 NA
ATOM     44  H   LEU A   1     -30.426   2.399  12.475  0.00  0.00    +0.142 HD
ENDBRANCH  42  43
BRANCH  42  45
ATOM     45  CB  LEU A   1     -29.158   4.197  11.239  0.00  0.00    +0.026 C 
BRANCH  45  46
ATOM     46  CG  LEU A   1     -28.259   5.282  10.657  0.00  0.00    +0.002 C 
ATOM     47  CD2 LEU A   1     -29.091   6.500  10.297  0.00  0.00    +0.000 C 
ATOM     48  CD1 LEU A   1     -27.514   4.757   9.440  0.00  0.00    +0.000 C 
ENDBRANCH  45  46
ENDBRANCH  42  45
ENDBRANCH  38  42
ENDBRANCH  37  40
BRANCH  37  49
ATOM     49  CB  SER A   2     -24.479   1.408  12.801  0.00  0.00    +0.166 C 
BRANCH  49  50
ATOM     50  OG  SER A   2     -23.249   1.263  13.487  0.00  0.00    -0.380 OA
ATOM     51  H   SER A   2     -22.998   0.306  13.514  0.00  0.00    +0.211 HD
ENDBRANCH  49  50
ENDBRANCH  37  49
ENDBRANCH  33  37
ENDBRANCH  32  34
BRANCH  32  52
ATOM     52  CB  ASP A   3     -20.649   3.697  11.520  0.00  0.00    +0.143 C 
BRANCH  52  53
ATOM     53  CG  ASP A   3     -19.165   4.058  11.498  0.00  0.00    +0.367 C 
ATOM     54  OD2 ASP A   3     -18.753   5.006  12.212  0.00  0.00    -0.246 OA
ATOM     55  OD1 ASP A   3     -18.403   3.380  10.774  0.00  0.00    -0.246 OA
ENDBRANCH  52  53
ENDBRANCH  32  52
ENDBRANCH  28  32
ENDBRANCH   1  29
BRANCH   1  56
ATOM     56  CB  PHE A   4     -22.935   8.755  14.051  0.00  0.00    +0.055 C 
BRANCH  56  57
ATOM     57  CG  PHE A   4     -24.353   8.338  13.812  0.00  0.00    -0.020 A 
ATOM     58  CD2 PHE A   4     -24.723   7.002  13.875  0.00  0.00    -0.004 A 
ATOM     59  CE2 PHE A   4     -26.035   6.614  13.651  0.00  0.00    -0.000 A 
ATOM     60  CZ  PHE A   4     -26.992   7.559  13.356  0.00  0.00    -0.000 A 
ATOM     61  CE1 PHE A   4     -26.638   8.902  13.285  0.00  0.00    -0.000 A 
ATOM     62  CD1 PHE A   4     -25.322   9.285  13.511  0.00  0.00    -0.004 A 
ENDBRANCH  56  57
ENDBRANCH   1  56
TORSDOF 25
REMARK  Name = ../refined-set-2016/4o0x/4o0x_pocket.pdb
REMARK  212 active torsions:
REMARK  status: ('A' for Active; 'I' for Inactive)
REMARK    1  A    between atoms: _1  and  _3
REMARK    2  A    between atoms: _3  and  _4
REMARK    3  A    between atoms: _3  and  _6
REMARK    4  A    between atoms: _6  and  _7
REMARK    5  A    between atoms: _7  and  _8
REMARK    6  A    between atoms: _8  and  _9
REMARK    7  A    between atoms: _9  and  _10
REMARK    8  A    between atoms: _14  and  _16
REMARK    9  A    between atoms: _16  and  _17
REMARK   10  A    between atoms: _16  and  _19
REMARK   11  A    between atoms: _19  and  _20
REMARK   12  A    between atoms: _23  and  _25
REMARK   13  A    between atoms: _25  and  _26
REMARK   14  A    between atoms: _28  and  _30
REMARK   15  A    between atoms: _30  and  _31
REMARK   16  A    between atoms: _30  and  _33
REMARK   17  A    between atoms: _33  and  _34
REMARK   18  A    between atoms: _34  and  _35
REMARK   19  A    between atoms: _38  and  _40
REMARK   20  A    between atoms: _40  and  _41
REMARK   21  A    between atoms: _43  and  _45
REMARK   22  A    between atoms: _45  and  _46
REMARK   23  A    between atoms: _45  and  _48
REMARK   24  A    between atoms: _48  and  _49
REMARK   25  A    between atoms: _51  and  _53
REMARK   26  A    between atoms: _53  and  _54
REMARK   27  A    between atoms: _53  and  _56
REMARK   28  A    between atoms: _56  and  _57
REMARK   29  A    between atoms: _60  and  _62
REMARK   30  A    between atoms: _62  and  _63
REMARK   31  A    between atoms: _65  and  _67
REMARK   32  A    between atoms: _67  and  _68
REMARK   33  A    between atoms: _67  and  _70
REMARK   34  A    between atoms: _70  and  _71
REMARK   35  A    between atoms: _74  and  _76
REMARK   36  A    between atoms: _76  and  _77
REMARK   37  A    between atoms: _76  and  _79
REMARK   38  A    between atoms: _82  and  _84
REMARK   39  A    between atoms: _84  and  _85
REMARK   40  A    between atoms: _84  and  _87
REMARK   41  A    between atoms: _89  and  _91
REMARK   42  A    between atoms: _91  and  _92
REMARK   43  A    between atoms: _91  and  _94
REMARK   44  A    between atoms: _94  and  _95
REMARK   45  A    between atoms: _98  and  _100
REMARK   46  A    between atoms: _100  and  _101
REMARK   47  A    between atoms: _100  and  _103
REMARK   48  A    between atoms: _106  and  _108
REMARK   49  A    between atoms: _108  and  _109
REMARK   50  A    between atoms: _112  and  _114
REMARK   51  A    between atoms: _114  and  _115
REMARK   52  A    between atoms: _114  and  _117
REMARK   53  A    between atoms: _120  and  _122
REMARK   54  A    between atoms: _122  and  _123
REMARK   55  A    between atoms: _122  and  _125
REMARK   56  A    between atoms: _125  and  _126
REMARK   57  A    between atoms: _126  and  _127
REMARK   58  A    between atoms: _127  and  _128
REMARK   59  A    between atoms: _128  and  _129
REMARK   60  A    between atoms: _133  and  _135
REMARK   61  A    between atoms: _135  and  _136
REMARK   62  A    between atoms: _135  and  _138
REMARK   63  A    between atoms: _138  and  _139
REMARK   64  A    between atoms: _139  and  _140
REMARK   65  A    between atoms: _140  and  _141
REMARK   66  A    between atoms: _141  and  _142
REMARK   67  A    between atoms: _146  and  _148
REMARK   68  A    between atoms: _148  and  _149
REMARK   69  A    between atoms: _148  and  _151
REMARK   70  A    between atoms: _151  and  _152
REMARK   71  A    between atoms: _152  and  _153
REMARK   72  A    between atoms: _155  and  _157
REMARK   73  A    between atoms: _157  and  _158
REMARK   74  A    between atoms: _157  and  _160
REMARK   75  A    between atoms: _160  and  _161
REMARK   76  A    between atoms: _166  and  _168
REMARK   77  A    between atoms: _168  and  _169
REMARK   78  A    between atoms: _168  and  _171
REMARK   79  A    between atoms: _171  and  _172
REMARK   80  A    between atoms: _172  and  _173
REMARK   81  A    between atoms: _176  and  _178
REMARK   82  A    between atoms: _178  and  _179
REMARK   83  A    between atoms: _178  and  _181
REMARK   84  A    between atoms: _184  and  _186
REMARK   85  A    between atoms: _186  and  _187
REMARK   86  A    between atoms: _186  and  _189
REMARK   87  A    between atoms: _189  and  _190
REMARK   88  A    between atoms: _193  and  _195
REMARK   89  A    between atoms: _195  and  _196
REMARK   90  A    between atoms: _195  and  _198
REMARK   91  A    between atoms: _198  and  _199
REMARK   92  A    between atoms: _199  and  _200
REMARK   93  A    between atoms: _202  and  _204
REMARK   94  A    between atoms: _204  and  _205
REMARK   95  A    between atoms: _204  and  _207
REMARK   96  A    between atoms: _207  and  _208
REMARK   97  A    between atoms: _208  and  _209
REMARK   98  A    between atoms: _209  and  _210
REMARK   99  A    between atoms: _219  and  _221
REMARK  100  A    between atoms: _221  and  _222
REMARK  101  A    between atoms: _221  and  _224
REMARK  102  A    between atoms: _224  and  _225
REMARK  103  A    between atoms: _230  and  _231
REMARK  104  A    between atoms: _233  and  _235
REMARK  105  A    between atoms: _235  and  _236
REMARK  106  A    between atoms: _235  and  _238
REMARK  107  A    between atoms: _241  and  _243
REMARK  108  A    between atoms: _243  and  _244
REMARK  109  A    between atoms: _243  and  _246
REMARK  110  A    between atoms: _249  and  _251
REMARK  111  A    between atoms: _251  and  _252
REMARK  112  A    between atoms: _251  and  _254
REMARK  113  A    between atoms: _254  and  _255
REMARK  114  A    between atoms: _255  and  _256
REMARK  115  A    between atoms: _259  and  _261
REMARK  116  A    between atoms: _261  and  _262
REMARK  117  A    between atoms: _261  and  _264
REMARK  118  A    between atoms: _264  and  _265
REMARK  119  A    between atoms: _265  and  _266
REMARK  120  A    between atoms: _268  and  _270
REMARK  121  A    between atoms: _270  and  _271
REMARK  122  A    between atoms: _270  and  _273
REMARK  123  A    between atoms: _273  and  _274
REMARK  124  A    between atoms: _279  and  _280
REMARK  125  A    between atoms: _282  and  _284
REMARK  126  A    between atoms: _284  and  _285
REMARK  127  A    between atoms: _284  and  _287
REMARK  128  A    between atoms: _287  and  _288
REMARK  129  A    between atoms: _293  and  _295
REMARK  130  A    between atoms: _295  and  _296
REMARK  131  A    between atoms: _295  and  _298
REMARK  132  A    between atoms: _301  and  _303
REMARK  133  A    between atoms: _303  and  _304
REMARK  134  A    between atoms: _303  and  _306
REMARK  135  A    between atoms: _309  and  _311
REMARK  136  A    between atoms: _311  and  _312
REMARK  137  A    between atoms: _311  and  _314
REMARK  138  A    between atoms: _314  and  _315
REMARK  139  A    between atoms: _315  and  _316
REMARK  140  A    between atoms: _318  and  _320
REMARK  141  A    between atoms: _320  and  _321
REMARK  142  A    between atoms: _320  and  _323
REMARK  143  A    between atoms: _323  and  _324
REMARK  144  A    between atoms: _324  and  _325
REMARK  145  A    between atoms: _328  and  _330
REMARK  146  A    between atoms: _330  and  _331
REMARK  147  A    between atoms: _330  and  _333
REMARK  148  A    between atoms: _333  and  _334
REMARK  149  A    between atoms: _340  and  _342
REMARK  150  A    between atoms: _342  and  _343
REMARK  151  A    between atoms: _342  and  _345
REMARK  152  A    between atoms: _345  and  _346
REMARK  153  A    between atoms: _349  and  _351
REMARK  154  A    between atoms: _351  and  _352
REMARK  155  A    between atoms: _351  and  _354
REMARK  156  A    between atoms: _354  and  _355
REMARK  157  A    between atoms: _355  and  _356
REMARK  158  A    between atoms: _359  and  _361
REMARK  159  A    between atoms: _361  and  _362
REMARK  160  A    between atoms: _364  and  _366
REMARK  161  A    between atoms: _366  and  _367
REMARK  162  A    between atoms: _369  and  _371
REMARK  163  A    between atoms: _371  and  _372
REMARK  164  A    between atoms: _375  and  _377
REMARK  165  A    between atoms: _377  and  _378
REMARK  166  A    between atoms: _377  and  _380
REMARK  167  A    between atoms: _380  and  _381
REMARK  168  A    between atoms: _386  and  _388
REMARK  169  A    between atoms: _388  and  _389
REMARK  170  A    between atoms: _388  and  _391
REMARK  171  A    between atoms: _391  and  _392
REMARK  172  A    between atoms: _395  and  _397
REMARK  173  A    between atoms: _397  and  _398
REMARK  174  A    between atoms: _397  and  _400
REMARK  175  A    between atoms: _400  and  _401
REMARK  176  A    between atoms: _403  and  _405
REMARK  177  A    between atoms: _405  and  _406
REMARK  178  A    between atoms: _405  and  _408
REMARK  179  A    between atoms: _408  and  _409
REMARK  180  A    between atoms: _412  and  _414
REMARK  181  A    between atoms: _414  and  _415
REMARK  182  A    between atoms: _414  and  _417
REMARK  183  A    between atoms: _417  and  _418
REMARK  184  A    between atoms: _421  and  _423
REMARK  185  A    between atoms: _423  and  _424
REMARK  186  A    between atoms: _423  and  _426
REMARK  187  A    between atoms: _426  and  _427
REMARK  188  A    between atoms: _430  and  _432
REMARK  189  A    between atoms: _432  and  _433
REMARK  190  A    between atoms: _432  and  _435
REMARK  191  A    between atoms: _435  and  _436
REMARK  192  A    between atoms: _439  and  _441
REMARK  193  A    between atoms: _441  and  _442
REMARK  194  A    between atoms: _441  and  _444
REMARK  195  A    between atoms: _444  and  _445
REMARK  196  A    between atoms: _447  and  _449
REMARK  197  A    between atoms: _449  and  _450
REMARK  198  A    between atoms: _449  and  _452
REMARK  199  A    between atoms: _452  and  _453
REMARK  200  A    between atoms: _456  and  _458
REMARK  201  A    between atoms: _458  and  _459
REMARK  202  A    between atoms: _458  and  _461
REMARK  203  A    between atoms: _461  and  _462
REMARK  204  A    between atoms: _468  and  _470
REMARK  205  A    between atoms: _470  and  _471
REMARK  206  A    between atoms: _473  and  _475
REMARK  207  A    between atoms: _475  and  _476
REMARK  208  A    between atoms: _475  and  _478
REMARK  209  A    between atoms: _478  and  _479
REMARK  210  A    between atoms: _485  and  _487
REMARK  211  A    between atoms: _487  and  _488
REMARK  212  A    between atoms: _487  and  _490
REMARK                            x       y       z     vdW  Elec       q    Type
REMARK                         _______ _______ _______ _____ _____    ______ ____
ROOT
ATOM      1  O   HOH     1     -21.152   8.981   9.898  0.00  0.00    +0.000 OA
ENDROOT
TORSDOF 0
REMARK  Name = ../refined-set-2016/4o0x/4o0x_pocket.pdb
REMARK  212 active torsions:
REMARK  status: ('A' for Active; 'I' for Inactive)
REMARK    1  A    between atoms: _1  and  _3
REMARK    2  A    between atoms: _3  and  _4
REMARK    3  A    between atoms: _3  and  _6
REMARK    4  A    between atoms: _6  and  _7
REMARK    5  A    between atoms: _7  and  _8
REMARK    6  A    between atoms: _8  and  _9
REMARK    7  A    between atoms: _9  and  _10
REMARK    8  A    between atoms: _14  and  _16
REMARK    9  A    between atoms: _16  and  _17
REMARK   10  A    between atoms: _16  and  _19
REMARK   11  A    between atoms: _19  and  _20
REMARK   12  A    between atoms: _23  and  _25
REMARK   13  A    between atoms: _25  and  _26
REMARK   14  A    between atoms: _28  and  _30
REMARK   15  A    between atoms: _30  and  _31
REMARK   16  A    between atoms: _30  and  _33
REMARK   17  A    between atoms: _33  and  _34
REMARK   18  A    between atoms: _34  and  _35
REMARK   19  A    between atoms: _38  and  _40
REMARK   20  A    between atoms: _40  and  _41
REMARK   21  A    between atoms: _43  and  _45
REMARK   22  A    between atoms: _45  and  _46
REMARK   23  A    between atoms: _45  and  _48
REMARK   24  A    between atoms: _48  and  _49
REMARK   25  A    between atoms: _51  and  _53
REMARK   26  A    between atoms: _53  and  _54
REMARK   27  A    between atoms: _53  and  _56
REMARK   28  A    between atoms: _56  and  _57
REMARK   29  A    between atoms: _60  and  _62
REMARK   30  A    between atoms: _62  and  _63
REMARK   31  A    between atoms: _65  and  _67
REMARK   32  A    between atoms: _67  and  _68
REMARK   33  A    between atoms: _67  and  _70
REMARK   34  A    between atoms: _70  and  _71
REMARK   35  A    between atoms: _74  and  _76
REMARK   36  A    between atoms: _76  and  _77
REMARK   37  A    between atoms: _76  and  _79
REMARK   38  A    between atoms: _82  and  _84
REMARK   39  A    between atoms: _84  and  _85
REMARK   40  A    between atoms: _84  and  _87
REMARK   41  A    between atoms: _89  and  _91
REMARK   42  A    between atoms: _91  and  _92
REMARK   43  A    between atoms: _91  and  _94
REMARK   44  A    between atoms: _94  and  _95
REMARK   45  A    between atoms: _98  and  _100
REMARK   46  A    between atoms: _100  and  _101
REMARK   47  A    between atoms: _100  and  _103
REMARK   48  A    between atoms: _106  and  _108
REMARK   49  A    between atoms: _108  and  _109
REMARK   50  A    between atoms: _112  and  _114
REMARK   51  A    between atoms: _114  and  _115
REMARK   52  A    between atoms: _114  and  _117
REMARK   53  A    between atoms: _120  and  _122
REMARK   54  A    between atoms: _122  and  _123
REMARK   55  A    between atoms: _122  and  _125
REMARK   56  A    between atoms: _125  and  _126
REMARK   57  A    between atoms: _126  and  _127
REMARK   58  A    between atoms: _127  and  _128
REMARK   59  A    between atoms: _128  and  _129
REMARK   60  A    between atoms: _133  and  _135
REMARK   61  A    between atoms: _135  and  _136
REMARK   62  A    between atoms: _135  and  _138
REMARK   63  A    between atoms: _138  and  _139
REMARK   64  A    between atoms: _139  and  _140
REMARK   65  A    between atoms: _140  and  _141
REMARK   66  A    between atoms: _141  and  _142
REMARK   67  A    between atoms: _146  and  _148
REMARK   68  A    between atoms: _148  and  _149
REMARK   69  A    between atoms: _148  and  _151
REMARK   70  A    between atoms: _151  and  _152
REMARK   71  A    between atoms: _152  and  _153
REMARK   72  A    between atoms: _155  and  _157
REMARK   73  A    between atoms: _157  and  _158
REMARK   74  A    between atoms: _157  and  _160
REMARK   75  A    between atoms: _160  and  _161
REMARK   76  A    between atoms: _166  and  _168
REMARK   77  A    between atoms: _168  and  _169
REMARK   78  A    between atoms: _168  and  _171
REMARK   79  A    between atoms: _171  and  _172
REMARK   80  A    between atoms: _172  and  _173
REMARK   81  A    between atoms: _176  and  _178
REMARK   82  A    between atoms: _178  and  _179
REMARK   83  A    between atoms: _178  and  _181
REMARK   84  A    between atoms: _184  and  _186
REMARK   85  A    between atoms: _186  and  _187
REMARK   86  A    between atoms: _186  and  _189
REMARK   87  A    between atoms: _189  and  _190
REMARK   88  A    between atoms: _193  and  _195
REMARK   89  A    between atoms: _195  and  _196
REMARK   90  A    between atoms: _195  and  _198
REMARK   91  A    between atoms: _198  and  _199
REMARK   92  A    between atoms: _199  and  _200
REMARK   93  A    between atoms: _202  and  _204
REMARK   94  A    between atoms: _204  and  _205
REMARK   95  A    between atoms: _204  and  _207
REMARK   96  A    between atoms: _207  and  _208
REMARK   97  A    between atoms: _208  and  _209
REMARK   98  A    between atoms: _209  and  _210
REMARK   99  A    between atoms: _219  and  _221
REMARK  100  A    between atoms: _221  and  _222
REMARK  101  A    between atoms: _221  and  _224
REMARK  102  A    between atoms: _224  and  _225
REMARK  103  A    between atoms: _230  and  _231
REMARK  104  A    between atoms: _233  and  _235
REMARK  105  A    between atoms: _235  and  _236
REMARK  106  A    between atoms: _235  and  _238
REMARK  107  A    between atoms: _241  and  _243
REMARK  108  A    between atoms: _243  and  _244
REMARK  109  A    between atoms: _243  and  _246
REMARK  110  A    between atoms: _249  and  _251
REMARK  111  A    between atoms: _251  and  _252
REMARK  112  A    between atoms: _251  and  _254
REMARK  113  A    between atoms: _254  and  _255
REMARK  114  A    between atoms: _255  and  _256
REMARK  115  A    between atoms: _259  and  _261
REMARK  116  A    between atoms: _261  and  _262
REMARK  117  A    between atoms: _261  and  _264
REMARK  118  A    between atoms: _264  and  _265
REMARK  119  A    between atoms: _265  and  _266
REMARK  120  A    between atoms: _268  and  _270
REMARK  121  A    between atoms: _270  and  _271
REMARK  122  A    between atoms: _270  and  _273
REMARK  123  A    between atoms: _273  and  _274
REMARK  124  A    between atoms: _279  and  _280
REMARK  125  A    between atoms: _282  and  _284
REMARK  126  A    between atoms: _284  and  _285
REMARK  127  A    between atoms: _284  and  _287
REMARK  128  A    between atoms: _287  and  _288
REMARK  129  A    between atoms: _293  and  _295
REMARK  130  A    between atoms: _295  and  _296
REMARK  131  A    between atoms: _295  and  _298
REMARK  132  A    between atoms: _301  and  _303
REMARK  133  A    between atoms: _303  and  _304
REMARK  134  A    between atoms: _303  and  _306
REMARK  135  A    between atoms: _309  and  _311
REMARK  136  A    between atoms: _311  and  _312
REMARK  137  A    between atoms: _311  and  _314
REMARK  138  A    between atoms: _314  and  _315
REMARK  139  A    between atoms: _315  and  _316
REMARK  140  A    between atoms: _318  and  _320
REMARK  141  A    between atoms: _320  and  _321
REMARK  142  A    between atoms: _320  and  _323
REMARK  143  A    between atoms: _323  and  _324
REMARK  144  A    between atoms: _324  and  _325
REMARK  145  A    between atoms: _328  and  _330
REMARK  146  A    between atoms: _330  and  _331
REMARK  147  A    between atoms: _330  and  _333
REMARK  148  A    between atoms: _333  and  _334
REMARK  149  A    between atoms: _340  and  _342
REMARK  150  A    between atoms: _342  and  _343
REMARK  151  A    between atoms: _342  and  _345
REMARK  152  A    between atoms: _345  and  _346
REMARK  153  A    between atoms: _349  and  _351
REMARK  154  A    between atoms: _351  and  _352
REMARK  155  A    between atoms: _351  and  _354
REMARK  156  A    between atoms: _354  and  _355
REMARK  157  A    between atoms: _355  and  _356
REMARK  158  A    between atoms: _359  and  _361
REMARK  159  A    between atoms: _361  and  _362
REMARK  160  A    between atoms: _364  and  _366
REMARK  161  A    between atoms: _366  and  _367
REMARK  162  A    between atoms: _369  and  _371
REMARK  163  A    between atoms: _371  and  _372
REMARK  164  A    between atoms: _375  and  _377
REMARK  165  A    between atoms: _377  and  _378
REMARK  166  A    between atoms: _377  and  _380
REMARK  167  A    between atoms: _380  and  _381
REMARK  168  A    between atoms: _386  and  _388
REMARK  169  A    between atoms: _388  and  _389
REMARK  170  A    between atoms: _388  and  _391
REMARK  171  A    between atoms: _391  and  _392
REMARK  172  A    between atoms: _395  and  _397
REMARK  173  A    between atoms: _397  and  _398
REMARK  174  A    between atoms: _397  and  _400
REMARK  175  A    between atoms: _400  and  _401
REMARK  176  A    between atoms: _403  and  _405
REMARK  177  A    between atoms: _405  and  _406
REMARK  178  A    between atoms: _405  and  _408
REMARK  179  A    between atoms: _408  and  _409
REMARK  180  A    between atoms: _412  and  _414
REMARK  181  A    between atoms: _414  and  _415
REMARK  182  A    between atoms: _414  and  _417
REMARK  183  A    between atoms: _417  and  _418
REMARK  184  A    between atoms: _421  and  _423
REMARK  185  A    between atoms: _423  and  _424
REMARK  186  A    between atoms: _423  and  _426
REMARK  187  A    between atoms: _426  and  _427
REMARK  188  A    between atoms: _430  and  _432
REMARK  189  A    between atoms: _432  and  _433
REMARK  190  A    between atoms: _432  and  _435
REMARK  191  A    between atoms: _435  and  _436
REMARK  192  A    between atoms: _439  and  _441
REMARK  193  A    between atoms: _441  and  _442
REMARK  194  A    between atoms: _441  and  _444
REMARK  195  A    between atoms: _444  and  _445
REMARK  196  A    between atoms: _447  and  _449
REMARK  197  A    between atoms: _449  and  _450
REMARK  198  A    between atoms: _449  and  _452
REMARK  199  A    between atoms: _452  and  _453
REMARK  200  A    between atoms: _456  and  _458
REMARK  201  A    between atoms: _458  and  _459
REMARK  202  A    between atoms: _458  and  _461
REMARK  203  A    between atoms: _461  and  _462
REMARK  204  A    between atoms: _468  and  _470
REMARK  205  A    between atoms: _470  and  _471
REMARK  206  A    between atoms: _473  and  _475
REMARK  207  A    between atoms: _475  and  _476
REMARK  208  A    between atoms: _475  and  _478
REMARK  209  A    between atoms: _478  and  _479
REMARK  210  A    between atoms: _485  and  _487
REMARK  211  A    between atoms: _487  and  _488
REMARK  212  A    between atoms: _487  and  _490
REMARK                            x       y       z     vdW  Elec       q    Type
REMARK                         _______ _______ _______ _____ _____    ______ ____
ROOT
ATOM      1  O   HOH     1     -21.666   0.069  11.426  0.00  0.00    +0.000 OA
ENDROOT
TORSDOF 0
REMARK  Name = ../refined-set-2016/4o0x/4o0x_pocket.pdb
REMARK  212 active torsions:
REMARK  status: ('A' for Active; 'I' for Inactive)
REMARK    1  A    between atoms: _1  and  _3
REMARK    2  A    between atoms: _3  and  _4
REMARK    3  A    between atoms: _3  and  _6
REMARK    4  A    between atoms: _6  and  _7
REMARK    5  A    between atoms: _7  and  _8
REMARK    6  A    between atoms: _8  and  _9
REMARK    7  A    between atoms: _9  and  _10
REMARK    8  A    between atoms: _14  and  _16
REMARK    9  A    between atoms: _16  and  _17
REMARK   10  A    between atoms: _16  and  _19
REMARK   11  A    between atoms: _19  and  _20
REMARK   12  A    between atoms: _23  and  _25
REMARK   13  A    between atoms: _25  and  _26
REMARK   14  A    between atoms: _28  and  _30
REMARK   15  A    between atoms: _30  and  _31
REMARK   16  A    between atoms: _30  and  _33
REMARK   17  A    between atoms: _33  and  _34
REMARK   18  A    between atoms: _34  and  _35
REMARK   19  A    between atoms: _38  and  _40
REMARK   20  A    between atoms: _40  and  _41
REMARK   21  A    between atoms: _43  and  _45
REMARK   22  A    between atoms: _45  and  _46
REMARK   23  A    between atoms: _45  and  _48
REMARK   24  A    between atoms: _48  and  _49
REMARK   25  A    between atoms: _51  and  _53
REMARK   26  A    between atoms: _53  and  _54
REMARK   27  A    between atoms: _53  and  _56
REMARK   28  A    between atoms: _56  and  _57
REMARK   29  A    between atoms: _60  and  _62
REMARK   30  A    between atoms: _62  and  _63
REMARK   31  A    between atoms: _65  and  _67
REMARK   32  A    between atoms: _67  and  _68
REMARK   33  A    between atoms: _67  and  _70
REMARK   34  A    between atoms: _70  and  _71
REMARK   35  A    between atoms: _74  and  _76
REMARK   36  A    between atoms: _76  and  _77
REMARK   37  A    between atoms: _76  and  _79
REMARK   38  A    between atoms: _82  and  _84
REMARK   39  A    between atoms: _84  and  _85
REMARK   40  A    between atoms: _84  and  _87
REMARK   41  A    between atoms: _89  and  _91
REMARK   42  A    between atoms: _91  and  _92
REMARK   43  A    between atoms: _91  and  _94
REMARK   44  A    between atoms: _94  and  _95
REMARK   45  A    between atoms: _98  and  _100
REMARK   46  A    between atoms: _100  and  _101
REMARK   47  A    between atoms: _100  and  _103
REMARK   48  A    between atoms: _106  and  _108
REMARK   49  A    between atoms: _108  and  _109
REMARK   50  A    between atoms: _112  and  _114
REMARK   51  A    between atoms: _114  and  _115
REMARK   52  A    between atoms: _114  and  _117
REMARK   53  A    between atoms: _120  and  _122
REMARK   54  A    between atoms: _122  and  _123
REMARK   55  A    between atoms: _122  and  _125
REMARK   56  A    between atoms: _125  and  _126
REMARK   57  A    between atoms: _126  and  _127
REMARK   58  A    between atoms: _127  and  _128
REMARK   59  A    between atoms: _128  and  _129
REMARK   60  A    between atoms: _133  and  _135
REMARK   61  A    between atoms: _135  and  _136
REMARK   62  A    between atoms: _135  and  _138
REMARK   63  A    between atoms: _138  and  _139
REMARK   64  A    between atoms: _139  and  _140
REMARK   65  A    between atoms: _140  and  _141
REMARK   66  A    between atoms: _141  and  _142
REMARK   67  A    between atoms: _146  and  _148
REMARK   68  A    between atoms: _148  and  _149
REMARK   69  A    between atoms: _148  and  _151
REMARK   70  A    between atoms: _151  and  _152
REMARK   71  A    between atoms: _152  and  _153
REMARK   72  A    between atoms: _155  and  _157
REMARK   73  A    between atoms: _157  and  _158
REMARK   74  A    between atoms: _157  and  _160
REMARK   75  A    between atoms: _160  and  _161
REMARK   76  A    between atoms: _166  and  _168
REMARK   77  A    between atoms: _168  and  _169
REMARK   78  A    between atoms: _168  and  _171
REMARK   79  A    between atoms: _171  and  _172
REMARK   80  A    between atoms: _172  and  _173
REMARK   81  A    between atoms: _176  and  _178
REMARK   82  A    between atoms: _178  and  _179
REMARK   83  A    between atoms: _178  and  _181
REMARK   84  A    between atoms: _184  and  _186
REMARK   85  A    between atoms: _186  and  _187
REMARK   86  A    between atoms: _186  and  _189
REMARK   87  A    between atoms: _189  and  _190
REMARK   88  A    between atoms: _193  and  _195
REMARK   89  A    between atoms: _195  and  _196
REMARK   90  A    between atoms: _195  and  _198
REMARK   91  A    between atoms: _198  and  _199
REMARK   92  A    between atoms: _199  and  _200
REMARK   93  A    between atoms: _202  and  _204
REMARK   94  A    between atoms: _204  and  _205
REMARK   95  A    between atoms: _204  and  _207
REMARK   96  A    between atoms: _207  and  _208
REMARK   97  A    between atoms: _208  and  _209
REMARK   98  A    between atoms: _209  and  _210
REMARK   99  A    between atoms: _219  and  _221
REMARK  100  A    between atoms: _221  and  _222
REMARK  101  A    between atoms: _221  and  _224
REMARK  102  A    between atoms: _224  and  _225
REMARK  103  A    between atoms: _230  and  _231
REMARK  104  A    between atoms: _233  and  _235
REMARK  105  A    between atoms: _235  and  _236
REMARK  106  A    between atoms: _235  and  _238
REMARK  107  A    between atoms: _241  and  _243
REMARK  108  A    between atoms: _243  and  _244
REMARK  109  A    between atoms: _243  and  _246
REMARK  110  A    between atoms: _249  and  _251
REMARK  111  A    between atoms: _251  and  _252
REMARK  112  A    between atoms: _251  and  _254
REMARK  113  A    between atoms: _254  and  _255
REMARK  114  A    between atoms: _255  and  _256
REMARK  115  A    between atoms: _259  and  _261
REMARK  116  A    between atoms: _261  and  _262
REMARK  117  A    between atoms: _261  and  _264
REMARK  118  A    between atoms: _264  and  _265
REMARK  119  A    between atoms: _265  and  _266
REMARK  120  A    between atoms: _268  and  _270
REMARK  121  A    between atoms: _270  and  _271
REMARK  122  A    between atoms: _270  and  _273
REMARK  123  A    between atoms: _273  and  _274
REMARK  124  A    between atoms: _279  and  _280
REMARK  125  A    between atoms: _282  and  _284
REMARK  126  A    between atoms: _284  and  _285
REMARK  127  A    between atoms: _284  and  _287
REMARK  128  A    between atoms: _287  and  _288
REMARK  129  A    between atoms: _293  and  _295
REMARK  130  A    between atoms: _295  and  _296
REMARK  131  A    between atoms: _295  and  _298
REMARK  132  A    between atoms: _301  and  _303
REMARK  133  A    between atoms: _303  and  _304
REMARK  134  A    between atoms: _303  and  _306
REMARK  135  A    between atoms: _309  and  _311
REMARK  136  A    between atoms: _311  and  _312
REMARK  137  A    between atoms: _311  and  _314
REMARK  138  A    between atoms: _314  and  _315
REMARK  139  A    between atoms: _315  and  _316
REMARK  140  A    between atoms: _318  and  _320
REMARK  141  A    between atoms: _320  and  _321
REMARK  142  A    between atoms: _320  and  _323
REMARK  143  A    between atoms: _323  and  _324
REMARK  144  A    between atoms: _324  and  _325
REMARK  145  A    between atoms: _328  and  _330
REMARK  146  A    between atoms: _330  and  _331
REMARK  147  A    between atoms: _330  and  _333
REMARK  148  A    between atoms: _333  and  _334
REMARK  149  A    between atoms: _340  and  _342
REMARK  150  A    between atoms: _342  and  _343
REMARK  151  A    between atoms: _342  and  _345
REMARK  152  A    between atoms: _345  and  _346
REMARK  153  A    between atoms: _349  and  _351
REMARK  154  A    between atoms: _351  and  _352
REMARK  155  A    between atoms: _351  and  _354
REMARK  156  A    between atoms: _354  and  _355
REMARK  157  A    between atoms: _355  and  _356
REMARK  158  A    between atoms: _359  and  _361
REMARK  159  A    between atoms: _361  and  _362
REMARK  160  A    between atoms: _364  and  _366
REMARK  161  A    between atoms: _366  and  _367
REMARK  162  A    between atoms: _369  and  _371
REMARK  163  A    between atoms: _371  and  _372
REMARK  164  A    between atoms: _375  and  _377
REMARK  165  A    between atoms: _377  and  _378
REMARK  166  A    between atoms: _377  and  _380
REMARK  167  A    between atoms: _380  and  _381
REMARK  168  A    between atoms: _386  and  _388
REMARK  169  A    between atoms: _388  and  _389
REMARK  170  A    between atoms: _388  and  _391
REMARK  171  A    between atoms: _391  and  _392
REMARK  172  A    between atoms: _395  and  _397
REMARK  173  A    between atoms: _397  and  _398
REMARK  174  A    between atoms: _397  and  _400
REMARK  175  A    between atoms: _400  and  _401
REMARK  176  A    between atoms: _403  and  _405
REMARK  177  A    between atoms: _405  and  _406
REMARK  178  A    between atoms: _405  and  _408
REMARK  179  A    between atoms: _408  and  _409
REMARK  180  A    between atoms: _412  and  _414
REMARK  181  A    between atoms: _414  and  _415
REMARK  182  A    between atoms: _414  and  _417
REMARK  183  A    between atoms: _417  and  _418
REMARK  184  A    between atoms: _421  and  _423
REMARK  185  A    between atoms: _423  and  _424
REMARK  186  A    between atoms: _423  and  _426
REMARK  187  A    between atoms: _426  and  _427
REMARK  188  A    between atoms: _430  and  _432
REMARK  189  A    between atoms: _432  and  _433
REMARK  190  A    between atoms: _432  and  _435
REMARK  191  A    between atoms: _435  and  _436
REMARK  192  A    between atoms: _439  and  _441
REMARK  193  A    between atoms: _441  and  _442
REMARK  194  A    between atoms: _441  and  _444
REMARK  195  A    between atoms: _444  and  _445
REMARK  196  A    between atoms: _447  and  _449
REMARK  197  A    between atoms: _449  and  _450
REMARK  198  A    between atoms: _449  and  _452
REMARK  199  A    between atoms: _452  and  _453
REMARK  200  A    between atoms: _456  and  _458
REMARK  201  A    between atoms: _458  and  _459
REMARK  202  A    between atoms: _458  and  _461
REMARK  203  A    between atoms: _461  and  _462
REMARK  204  A    between atoms: _468  and  _470
REMARK  205  A    between atoms: _470  and  _471
REMARK  206  A    between atoms: _473  and  _475
REMARK  207  A    between atoms: _475  and  _476
REMARK  208  A    between atoms: _475  and  _478
REMARK  209  A    between atoms: _478  and  _479
REMARK  210  A    between atoms: _485  and  _487
REMARK  211  A    between atoms: _487  and  _488
REMARK  212  A    between atoms: _487  and  _490
REMARK                            x       y       z     vdW  Elec       q    Type
REMARK                         _______ _______ _______ _____ _____    ______ ____
ROOT
ATOM      1  O   HOH     1     -21.207  -9.147  13.900  0.00  0.00    +0.000 OA
ENDROOT
TORSDOF 0
REMARK  Name = ../refined-set-2016/4o0x/4o0x_pocket.pdb
REMARK  212 active torsions:
REMARK  status: ('A' for Active; 'I' for Inactive)
REMARK    1  A    between atoms: _1  and  _3
REMARK    2  A    between atoms: _3  and  _4
REMARK    3  A    between atoms: _3  and  _6
REMARK    4  A    between atoms: _6  and  _7
REMARK    5  A    between atoms: _7  and  _8
REMARK    6  A    between atoms: _8  and  _9
REMARK    7  A    between atoms: _9  and  _10
REMARK    8  A    between atoms: _14  and  _16
REMARK    9  A    between atoms: _16  and  _17
REMARK   10  A    between atoms: _16  and  _19
REMARK   11  A    between atoms: _19  and  _20
REMARK   12  A    between atoms: _23  and  _25
REMARK   13  A    between atoms: _25  and  _26
REMARK   14  A    between atoms: _28  and  _30
REMARK   15  A    between atoms: _30  and  _31
REMARK   16  A    between atoms: _30  and  _33
REMARK   17  A    between atoms: _33  and  _34
REMARK   18  A    between atoms: _34  and  _35
REMARK   19  A    between atoms: _38  and  _40
REMARK   20  A    between atoms: _40  and  _41
REMARK   21  A    between atoms: _43  and  _45
REMARK   22  A    between atoms: _45  and  _46
REMARK   23  A    between atoms: _45  and  _48
REMARK   24  A    between atoms: _48  and  _49
REMARK   25  A    between atoms: _51  and  _53
REMARK   26  A    between atoms: _53  and  _54
REMARK   27  A    between atoms: _53  and  _56
REMARK   28  A    between atoms: _56  and  _57
REMARK   29  A    between atoms: _60  and  _62
REMARK   30  A    between atoms: _62  and  _63
REMARK   31  A    between atoms: _65  and  _67
REMARK   32  A    between atoms: _67  and  _68
REMARK   33  A    between atoms: _67  and  _70
REMARK   34  A    between atoms: _70  and  _71
REMARK   35  A    between atoms: _74  and  _76
REMARK   36  A    between atoms: _76  and  _77
REMARK   37  A    between atoms: _76  and  _79
REMARK   38  A    between atoms: _82  and  _84
REMARK   39  A    between atoms: _84  and  _85
REMARK   40  A    between atoms: _84  and  _87
REMARK   41  A    between atoms: _89  and  _91
REMARK   42  A    between atoms: _91  and  _92
REMARK   43  A    between atoms: _91  and  _94
REMARK   44  A    between atoms: _94  and  _95
REMARK   45  A    between atoms: _98  and  _100
REMARK   46  A    between atoms: _100  and  _101
REMARK   47  A    between atoms: _100  and  _103
REMARK   48  A    between atoms: _106  and  _108
REMARK   49  A    between atoms: _108  and  _109
REMARK   50  A    between atoms: _112  and  _114
REMARK   51  A    between atoms: _114  and  _115
REMARK   52  A    between atoms: _114  and  _117
REMARK   53  A    between atoms: _120  and  _122
REMARK   54  A    between atoms: _122  and  _123
REMARK   55  A    between atoms: _122  and  _125
REMARK   56  A    between atoms: _125  and  _126
REMARK   57  A    between atoms: _126  and  _127
REMARK   58  A    between atoms: _127  and  _128
REMARK   59  A    between atoms: _128  and  _129
REMARK   60  A    between atoms: _133  and  _135
REMARK   61  A    between atoms: _135  and  _136
REMARK   62  A    between atoms: _135  and  _138
REMARK   63  A    between atoms: _138  and  _139
REMARK   64  A    between atoms: _139  and  _140
REMARK   65  A    between atoms: _140  and  _141
REMARK   66  A    between atoms: _141  and  _142
REMARK   67  A    between atoms: _146  and  _148
REMARK   68  A    between atoms: _148  and  _149
REMARK   69  A    between atoms: _148  and  _151
REMARK   70  A    between atoms: _151  and  _152
REMARK   71  A    between atoms: _152  and  _153
REMARK   72  A    between atoms: _155  and  _157
REMARK   73  A    between atoms: _157  and  _158
REMARK   74  A    between atoms: _157  and  _160
REMARK   75  A    between atoms: _160  and  _161
REMARK   76  A    between atoms: _166  and  _168
REMARK   77  A    between atoms: _168  and  _169
REMARK   78  A    between atoms: _168  and  _171
REMARK   79  A    between atoms: _171  and  _172
REMARK   80  A    between atoms: _172  and  _173
REMARK   81  A    between atoms: _176  and  _178
REMARK   82  A    between atoms: _178  and  _179
REMARK   83  A    between atoms: _178  and  _181
REMARK   84  A    between atoms: _184  and  _186
REMARK   85  A    between atoms: _186  and  _187
REMARK   86  A    between atoms: _186  and  _189
REMARK   87  A    between atoms: _189  and  _190
REMARK   88  A    between atoms: _193  and  _195
REMARK   89  A    between atoms: _195  and  _196
REMARK   90  A    between atoms: _195  and  _198
REMARK   91  A    between atoms: _198  and  _199
REMARK   92  A    between atoms: _199  and  _200
REMARK   93  A    between atoms: _202  and  _204
REMARK   94  A    between atoms: _204  and  _205
REMARK   95  A    between atoms: _204  and  _207
REMARK   96  A    between atoms: _207  and  _208
REMARK   97  A    between atoms: _208  and  _209
REMARK   98  A    between atoms: _209  and  _210
REMARK   99  A    between atoms: _219  and  _221
REMARK  100  A    between atoms: _221  and  _222
REMARK  101  A    between atoms: _221  and  _224
REMARK  102  A    between atoms: _224  and  _225
REMARK  103  A    between atoms: _230  and  _231
REMARK  104  A    between atoms: _233  and  _235
REMARK  105  A    between atoms: _235  and  _236
REMARK  106  A    between atoms: _235  and  _238
REMARK  107  A    between atoms: _241  and  _243
REMARK  108  A    between atoms: _243  and  _244
REMARK  109  A    between atoms: _243  and  _246
REMARK  110  A    between atoms: _249  and  _251
REMARK  111  A    between atoms: _251  and  _252
REMARK  112  A    between atoms: _251  and  _254
REMARK  113  A    between atoms: _254  and  _255
REMARK  114  A    between atoms: _255  and  _256
REMARK  115  A    between atoms: _259  and  _261
REMARK  116  A    between atoms: _261  and  _262
REMARK  117  A    between atoms: _261  and  _264
REMARK  118  A    between atoms: _264  and  _265
REMARK  119  A    between atoms: _265  and  _266
REMARK  120  A    between atoms: _268  and  _270
REMARK  121  A    between atoms: _270  and  _271
REMARK  122  A    between atoms: _270  and  _273
REMARK  123  A    between atoms: _273  and  _274
REMARK  124  A    between atoms: _279  and  _280
REMARK  125  A    between atoms: _282  and  _284
REMARK  126  A    between atoms: _284  and  _285
REMARK  127  A    between atoms: _284  and  _287
REMARK  128  A    between atoms: _287  and  _288
REMARK  129  A    between atoms: _293  and  _295
REMARK  130  A    between atoms: _295  and  _296
REMARK  131  A    between atoms: _295  and  _298
REMARK  132  A    between atoms: _301  and  _303
REMARK  133  A    between atoms: _303  and  _304
REMARK  134  A    between atoms: _303  and  _306
REMARK  135  A    between atoms: _309  and  _311
REMARK  136  A    between atoms: _311  and  _312
REMARK  137  A    between atoms: _311  and  _314
REMARK  138  A    between atoms: _314  and  _315
REMARK  139  A    between atoms: _315  and  _316
REMARK  140  A    between atoms: _318  and  _320
REMARK  141  A    between atoms: _320  and  _321
REMARK  142  A    between atoms: _320  and  _323
REMARK  143  A    between atoms: _323  and  _324
REMARK  144  A    between atoms: _324  and  _325
REMARK  145  A    between atoms: _328  and  _330
REMARK  146  A    between atoms: _330  and  _331
REMARK  147  A    between atoms: _330  and  _333
REMARK  148  A    between atoms: _333  and  _334
REMARK  149  A    between atoms: _340  and  _342
REMARK  150  A    between atoms: _342  and  _343
REMARK  151  A    between atoms: _342  and  _345
REMARK  152  A    between atoms: _345  and  _346
REMARK  153  A    between atoms: _349  and  _351
REMARK  154  A    between atoms: _351  and  _352
REMARK  155  A    between atoms: _351  and  _354
REMARK  156  A    between atoms: _354  and  _355
REMARK  157  A    between atoms: _355  and  _356
REMARK  158  A    between atoms: _359  and  _361
REMARK  159  A    between atoms: _361  and  _362
REMARK  160  A    between atoms: _364  and  _366
REMARK  161  A    between atoms: _366  and  _367
REMARK  162  A    between atoms: _369  and  _371
REMARK  163  A    between atoms: _371  and  _372
REMARK  164  A    between atoms: _375  and  _377
REMARK  165  A    between atoms: _377  and  _378
REMARK  166  A    between atoms: _377  and  _380
REMARK  167  A    between atoms: _380  and  _381
REMARK  168  A    between atoms: _386  and  _388
REMARK  169  A    between atoms: _388  and  _389
REMARK  170  A    between atoms: _388  and  _391
REMARK  171  A    between atoms: _391  and  _392
REMARK  172  A    between atoms: _395  and  _397
REMARK  173  A    between atoms: _397  and  _398
REMARK  174  A    between atoms: _397  and  _400
REMARK  175  A    between atoms: _400  and  _401
REMARK  176  A    between atoms: _403  and  _405
REMARK  177  A    between atoms: _405  and  _406
REMARK  178  A    between atoms: _405  and  _408
REMARK  179  A    between atoms: _408  and  _409
REMARK  180  A    between atoms: _412  and  _414
REMARK  181  A    between atoms: _414  and  _415
REMARK  182  A    between atoms: _414  and  _417
REMARK  183  A    between atoms: _417  and  _418
REMARK  184  A    between atoms: _421  and  _423
REMARK  185  A    between atoms: _423  and  _424
REMARK  186  A    between atoms: _423  and  _426
REMARK  187  A    between atoms: _426  and  _427
REMARK  188  A    between atoms: _430  and  _432
REMARK  189  A    between atoms: _432  and  _433
REMARK  190  A    between atoms: _432  and  _435
REMARK  191  A    between atoms: _435  and  _436
REMARK  192  A    between atoms: _439  and  _441
REMARK  193  A    between atoms: _441  and  _442
REMARK  194  A    between atoms: _441  and  _444
REMARK  195  A    between atoms: _444  and  _445
REMARK  196  A    between atoms: _447  and  _449
REMARK  197  A    between atoms: _449  and  _450
REMARK  198  A    between atoms: _449  and  _452
REMARK  199  A    between atoms: _452  and  _453
REMARK  200  A    between atoms: _456  and  _458
REMARK  201  A    between atoms: _458  and  _459
REMARK  202  A    between atoms: _458  and  _461
REMARK  203  A    between atoms: _461  and  _462
REMARK  204  A    between atoms: _468  and  _470
REMARK  205  A    between atoms: _470  and  _471
REMARK  206  A    between atoms: _473  and  _475
REMARK  207  A    between atoms: _475  and  _476
REMARK  208  A    between atoms: _475  and  _478
REMARK  209  A    between atoms: _478  and  _479
REMARK  210  A    between atoms: _485  and  _487
REMARK  211  A    between atoms: _487  and  _488
REMARK  212  A    between atoms: _487  and  _490
REMARK                            x       y       z     vdW  Elec       q    Type
REMARK                         _______ _______ _______ _____ _____    ______ ____
ROOT
ATOM      1  O   HOH     1     -21.271  -8.509   9.504  0.00  0.00    +0.000 OA
ENDROOT
TORSDOF 0
REMARK  Name = ../refined-set-2016/4o0x/4o0x_pocket.pdb
REMARK  212 active torsions:
REMARK  status: ('A' for Active; 'I' for Inactive)
REMARK    1  A    between atoms: _1  and  _3
REMARK    2  A    between atoms: _3  and  _4
REMARK    3  A    between atoms: _3  and  _6
REMARK    4  A    between atoms: _6  and  _7
REMARK    5  A    between atoms: _7  and  _8
REMARK    6  A    between atoms: _8  and  _9
REMARK    7  A    between atoms: _9  and  _10
REMARK    8  A    between atoms: _14  and  _16
REMARK    9  A    between atoms: _16  and  _17
REMARK   10  A    between atoms: _16  and  _19
REMARK   11  A    between atoms: _19  and  _20
REMARK   12  A    between atoms: _23  and  _25
REMARK   13  A    between atoms: _25  and  _26
REMARK   14  A    between atoms: _28  and  _30
REMARK   15  A    between atoms: _30  and  _31
REMARK   16  A    between atoms: _30  and  _33
REMARK   17  A    between atoms: _33  and  _34
REMARK   18  A    between atoms: _34  and  _35
REMARK   19  A    between atoms: _38  and  _40
REMARK   20  A    between atoms: _40  and  _41
REMARK   21  A    between atoms: _43  and  _45
REMARK   22  A    between atoms: _45  and  _46
REMARK   23  A    between atoms: _45  and  _48
REMARK   24  A    between atoms: _48  and  _49
REMARK   25  A    between atoms: _51  and  _53
REMARK   26  A    between atoms: _53  and  _54
REMARK   27  A    between atoms: _53  and  _56
REMARK   28  A    between atoms: _56  and  _57
REMARK   29  A    between atoms: _60  and  _62
REMARK   30  A    between atoms: _62  and  _63
REMARK   31  A    between atoms: _65  and  _67
REMARK   32  A    between atoms: _67  and  _68
REMARK   33  A    between atoms: _67  and  _70
REMARK   34  A    between atoms: _70  and  _71
REMARK   35  A    between atoms: _74  and  _76
REMARK   36  A    between atoms: _76  and  _77
REMARK   37  A    between atoms: _76  and  _79
REMARK   38  A    between atoms: _82  and  _84
REMARK   39  A    between atoms: _84  and  _85
REMARK   40  A    between atoms: _84  and  _87
REMARK   41  A    between atoms: _89  and  _91
REMARK   42  A    between atoms: _91  and  _92
REMARK   43  A    between atoms: _91  and  _94
REMARK   44  A    between atoms: _94  and  _95
REMARK   45  A    between atoms: _98  and  _100
REMARK   46  A    between atoms: _100  and  _101
REMARK   47  A    between atoms: _100  and  _103
REMARK   48  A    between atoms: _106  and  _108
REMARK   49  A    between atoms: _108  and  _109
REMARK   50  A    between atoms: _112  and  _114
REMARK   51  A    between atoms: _114  and  _115
REMARK   52  A    between atoms: _114  and  _117
REMARK   53  A    between atoms: _120  and  _122
REMARK   54  A    between atoms: _122  and  _123
REMARK   55  A    between atoms: _122  and  _125
REMARK   56  A    between atoms: _125  and  _126
REMARK   57  A    between atoms: _126  and  _127
REMARK   58  A    between atoms: _127  and  _128
REMARK   59  A    between atoms: _128  and  _129
REMARK   60  A    between atoms: _133  and  _135
REMARK   61  A    between atoms: _135  and  _136
REMARK   62  A    between atoms: _135  and  _138
REMARK   63  A    between atoms: _138  and  _139
REMARK   64  A    between atoms: _139  and  _140
REMARK   65  A    between atoms: _140  and  _141
REMARK   66  A    between atoms: _141  and  _142
REMARK   67  A    between atoms: _146  and  _148
REMARK   68  A    between atoms: _148  and  _149
REMARK   69  A    between atoms: _148  and  _151
REMARK   70  A    between atoms: _151  and  _152
REMARK   71  A    between atoms: _152  and  _153
REMARK   72  A    between atoms: _155  and  _157
REMARK   73  A    between atoms: _157  and  _158
REMARK   74  A    between atoms: _157  and  _160
REMARK   75  A    between atoms: _160  and  _161
REMARK   76  A    between atoms: _166  and  _168
REMARK   77  A    between atoms: _168  and  _169
REMARK   78  A    between atoms: _168  and  _171
REMARK   79  A    between atoms: _171  and  _172
REMARK   80  A    between atoms: _172  and  _173
REMARK   81  A    between atoms: _176  and  _178
REMARK   82  A    between atoms: _178  and  _179
REMARK   83  A    between atoms: _178  and  _181
REMARK   84  A    between atoms: _184  and  _186
REMARK   85  A    between atoms: _186  and  _187
REMARK   86  A    between atoms: _186  and  _189
REMARK   87  A    between atoms: _189  and  _190
REMARK   88  A    between atoms: _193  and  _195
REMARK   89  A    between atoms: _195  and  _196
REMARK   90  A    between atoms: _195  and  _198
REMARK   91  A    between atoms: _198  and  _199
REMARK   92  A    between atoms: _199  and  _200
REMARK   93  A    between atoms: _202  and  _204
REMARK   94  A    between atoms: _204  and  _205
REMARK   95  A    between atoms: _204  and  _207
REMARK   96  A    between atoms: _207  and  _208
REMARK   97  A    between atoms: _208  and  _209
REMARK   98  A    between atoms: _209  and  _210
REMARK   99  A    between atoms: _219  and  _221
REMARK  100  A    between atoms: _221  and  _222
REMARK  101  A    between atoms: _221  and  _224
REMARK  102  A    between atoms: _224  and  _225
REMARK  103  A    between atoms: _230  and  _231
REMARK  104  A    between atoms: _233  and  _235
REMARK  105  A    between atoms: _235  and  _236
REMARK  106  A    between atoms: _235  and  _238
REMARK  107  A    between atoms: _241  and  _243
REMARK  108  A    between atoms: _243  and  _244
REMARK  109  A    between atoms: _243  and  _246
REMARK  110  A    between atoms: _249  and  _251
REMARK  111  A    between atoms: _251  and  _252
REMARK  112  A    between atoms: _251  and  _254
REMARK  113  A    between atoms: _254  and  _255
REMARK  114  A    between atoms: _255  and  _256
REMARK  115  A    between atoms: _259  and  _261
REMARK  116  A    between atoms: _261  and  _262
REMARK  117  A    between atoms: _261  and  _264
REMARK  118  A    between atoms: _264  and  _265
REMARK  119  A    between atoms: _265  and  _266
REMARK  120  A    between atoms: _268  and  _270
REMARK  121  A    between atoms: _270  and  _271
REMARK  122  A    between atoms: _270  and  _273
REMARK  123  A    between atoms: _273  and  _274
REMARK  124  A    between atoms: _279  and  _280
REMARK  125  A    between atoms: _282  and  _284
REMARK  126  A    between atoms: _284  and  _285
REMARK  127  A    between atoms: _284  and  _287
REMARK  128  A    between atoms: _287  and  _288
REMARK  129  A    between atoms: _293  and  _295
REMARK  130  A    between atoms: _295  and  _296
REMARK  131  A    between atoms: _295  and  _298
REMARK  132  A    between atoms: _301  and  _303
REMARK  133  A    between atoms: _303  and  _304
REMARK  134  A    between atoms: _303  and  _306
REMARK  135  A    between atoms: _309  and  _311
REMARK  136  A    between atoms: _311  and  _312
REMARK  137  A    between atoms: _311  and  _314
REMARK  138  A    between atoms: _314  and  _315
REMARK  139  A    between atoms: _315  and  _316
REMARK  140  A    between atoms: _318  and  _320
REMARK  141  A    between atoms: _320  and  _321
REMARK  142  A    between atoms: _320  and  _323
REMARK  143  A    between atoms: _323  and  _324
REMARK  144  A    between atoms: _324  and  _325
REMARK  145  A    between atoms: _328  and  _330
REMARK  146  A    between atoms: _330  and  _331
REMARK  147  A    between atoms: _330  and  _333
REMARK  148  A    between atoms: _333  and  _334
REMARK  149  A    between atoms: _340  and  _342
REMARK  150  A    between atoms: _342  and  _343
REMARK  151  A    between atoms: _342  and  _345
REMARK  152  A    between atoms: _345  and  _346
REMARK  153  A    between atoms: _349  and  _351
REMARK  154  A    between atoms: _351  and  _352
REMARK  155  A    between atoms: _351  and  _354
REMARK  156  A    between atoms: _354  and  _355
REMARK  157  A    between atoms: _355  and  _356
REMARK  158  A    between atoms: _359  and  _361
REMARK  159  A    between atoms: _361  and  _362
REMARK  160  A    between atoms: _364  and  _366
REMARK  161  A    between atoms: _366  and  _367
REMARK  162  A    between atoms: _369  and  _371
REMARK  163  A    between atoms: _371  and  _372
REMARK  164  A    between atoms: _375  and  _377
REMARK  165  A    between atoms: _377  and  _378
REMARK  166  A    between atoms: _377  and  _380
REMARK  167  A    between atoms: _380  and  _381
REMARK  168  A    between atoms: _386  and  _388
REMARK  169  A    between atoms: _388  and  _389
REMARK  170  A    between atoms: _388  and  _391
REMARK  171  A    between atoms: _391  and  _392
REMARK  172  A    between atoms: _395  and  _397
REMARK  173  A    between atoms: _397  and  _398
REMARK  174  A    between atoms: _397  and  _400
REMARK  175  A    between atoms: _400  and  _401
REMARK  176  A    between atoms: _403  and  _405
REMARK  177  A    between atoms: _405  and  _406
REMARK  178  A    between atoms: _405  and  _408
REMARK  179  A    between atoms: _408  and  _409
REMARK  180  A    between atoms: _412  and  _414
REMARK  181  A    between atoms: _414  and  _415
REMARK  182  A    between atoms: _414  and  _417
REMARK  183  A    between atoms: _417  and  _418
REMARK  184  A    between atoms: _421  and  _423
REMARK  185  A    between atoms: _423  and  _424
REMARK  186  A    between atoms: _423  and  _426
REMARK  187  A    between atoms: _426  and  _427
REMARK  188  A    between atoms: _430  and  _432
REMARK  189  A    between atoms: _432  and  _433
REMARK  190  A    between atoms: _432  and  _435
REMARK  191  A    between atoms: _435  and  _436
REMARK  192  A    between atoms: _439  and  _441
REMARK  193  A    between atoms: _441  and  _442
REMARK  194  A    between atoms: _441  and  _444
REMARK  195  A    between atoms: _444  and  _445
REMARK  196  A    between atoms: _447  and  _449
REMARK  197  A    between atoms: _449  and  _450
REMARK  198  A    between atoms: _449  and  _452
REMARK  199  A    between atoms: _452  and  _453
REMARK  200  A    between atoms: _456  and  _458
REMARK  201  A    between atoms: _458  and  _459
REMARK  202  A    between atoms: _458  and  _461
REMARK  203  A    between atoms: _461  and  _462
REMARK  204  A    between atoms: _468  and  _470
REMARK  205  A    between atoms: _470  and  _471
REMARK  206  A    between atoms: _473  and  _475
REMARK  207  A    between atoms: _475  and  _476
REMARK  208  A    between atoms: _475  and  _478
REMARK  209  A    between atoms: _478  and  _479
REMARK  210  A    between atoms: _485  and  _487
REMARK  211  A    between atoms: _487  and  _488
REMARK  212  A    between atoms: _487  and  _490
REMARK                            x       y       z     vdW  Elec       q    Type
REMARK                         _______ _______ _______ _____ _____    ______ ____
ROOT
ATOM      1  O   HOH     1     -20.839  -7.238  12.610  0.00  0.00    +0.000 OA
ENDROOT
TORSDOF 0
REMARK  Name = ../refined-set-2016/4o0x/4o0x_pocket.pdb
REMARK  212 active torsions:
REMARK  status: ('A' for Active; 'I' for Inactive)
REMARK    1  A    between atoms: _1  and  _3
REMARK    2  A    between atoms: _3  and  _4
REMARK    3  A    between atoms: _3  and  _6
REMARK    4  A    between atoms: _6  and  _7
REMARK    5  A    between atoms: _7  and  _8
REMARK    6  A    between atoms: _8  and  _9
REMARK    7  A    between atoms: _9  and  _10
REMARK    8  A    between atoms: _14  and  _16
REMARK    9  A    between atoms: _16  and  _17
REMARK   10  A    between atoms: _16  and  _19
REMARK   11  A    between atoms: _19  and  _20
REMARK   12  A    between atoms: _23  and  _25
REMARK   13  A    between atoms: _25  and  _26
REMARK   14  A    between atoms: _28  and  _30
REMARK   15  A    between atoms: _30  and  _31
REMARK   16  A    between atoms: _30  and  _33
REMARK   17  A    between atoms: _33  and  _34
REMARK   18  A    between atoms: _34  and  _35
REMARK   19  A    between atoms: _38  and  _40
REMARK   20  A    between atoms: _40  and  _41
REMARK   21  A    between atoms: _43  and  _45
REMARK   22  A    between atoms: _45  and  _46
REMARK   23  A    between atoms: _45  and  _48
REMARK   24  A    between atoms: _48  and  _49
REMARK   25  A    between atoms: _51  and  _53
REMARK   26  A    between atoms: _53  and  _54
REMARK   27  A    between atoms: _53  and  _56
REMARK   28  A    between atoms: _56  and  _57
REMARK   29  A    between atoms: _60  and  _62
REMARK   30  A    between atoms: _62  and  _63
REMARK   31  A    between atoms: _65  and  _67
REMARK   32  A    between atoms: _67  and  _68
REMARK   33  A    between atoms: _67  and  _70
REMARK   34  A    between atoms: _70  and  _71
REMARK   35  A    between atoms: _74  and  _76
REMARK   36  A    between atoms: _76  and  _77
REMARK   37  A    between atoms: _76  and  _79
REMARK   38  A    between atoms: _82  and  _84
REMARK   39  A    between atoms: _84  and  _85
REMARK   40  A    between atoms: _84  and  _87
REMARK   41  A    between atoms: _89  and  _91
REMARK   42  A    between atoms: _91  and  _92
REMARK   43  A    between atoms: _91  and  _94
REMARK   44  A    between atoms: _94  and  _95
REMARK   45  A    between atoms: _98  and  _100
REMARK   46  A    between atoms: _100  and  _101
REMARK   47  A    between atoms: _100  and  _103
REMARK   48  A    between atoms: _106  and  _108
REMARK   49  A    between atoms: _108  and  _109
REMARK   50  A    between atoms: _112  and  _114
REMARK   51  A    between atoms: _114  and  _115
REMARK   52  A    between atoms: _114  and  _117
REMARK   53  A    between atoms: _120  and  _122
REMARK   54  A    between atoms: _122  and  _123
REMARK   55  A    between atoms: _122  and  _125
REMARK   56  A    between atoms: _125  and  _126
REMARK   57  A    between atoms: _126  and  _127
REMARK   58  A    between atoms: _127  and  _128
REMARK   59  A    between atoms: _128  and  _129
REMARK   60  A    between atoms: _133  and  _135
REMARK   61  A    between atoms: _135  and  _136
REMARK   62  A    between atoms: _135  and  _138
REMARK   63  A    between atoms: _138  and  _139
REMARK   64  A    between atoms: _139  and  _140
REMARK   65  A    between atoms: _140  and  _141
REMARK   66  A    between atoms: _141  and  _142
REMARK   67  A    between atoms: _146  and  _148
REMARK   68  A    between atoms: _148  and  _149
REMARK   69  A    between atoms: _148  and  _151
REMARK   70  A    between atoms: _151  and  _152
REMARK   71  A    between atoms: _152  and  _153
REMARK   72  A    between atoms: _155  and  _157
REMARK   73  A    between atoms: _157  and  _158
REMARK   74  A    between atoms: _157  and  _160
REMARK   75  A    between atoms: _160  and  _161
REMARK   76  A    between atoms: _166  and  _168
REMARK   77  A    between atoms: _168  and  _169
REMARK   78  A    between atoms: _168  and  _171
REMARK   79  A    between atoms: _171  and  _172
REMARK   80  A    between atoms: _172  and  _173
REMARK   81  A    between atoms: _176  and  _178
REMARK   82  A    between atoms: _178  and  _179
REMARK   83  A    between atoms: _178  and  _181
REMARK   84  A    between atoms: _184  and  _186
REMARK   85  A    between atoms: _186  and  _187
REMARK   86  A    between atoms: _186  and  _189
REMARK   87  A    between atoms: _189  and  _190
REMARK   88  A    between atoms: _193  and  _195
REMARK   89  A    between atoms: _195  and  _196
REMARK   90  A    between atoms: _195  and  _198
REMARK   91  A    between atoms: _198  and  _199
REMARK   92  A    between atoms: _199  and  _200
REMARK   93  A    between atoms: _202  and  _204
REMARK   94  A    between atoms: _204  and  _205
REMARK   95  A    between atoms: _204  and  _207
REMARK   96  A    between atoms: _207  and  _208
REMARK   97  A    between atoms: _208  and  _209
REMARK   98  A    between atoms: _209  and  _210
REMARK   99  A    between atoms: _219  and  _221
REMARK  100  A    between atoms: _221  and  _222
REMARK  101  A    between atoms: _221  and  _224
REMARK  102  A    between atoms: _224  and  _225
REMARK  103  A    between atoms: _230  and  _231
REMARK  104  A    between atoms: _233  and  _235
REMARK  105  A    between atoms: _235  and  _236
REMARK  106  A    between atoms: _235  and  _238
REMARK  107  A    between atoms: _241  and  _243
REMARK  108  A    between atoms: _243  and  _244
REMARK  109  A    between atoms: _243  and  _246
REMARK  110  A    between atoms: _249  and  _251
REMARK  111  A    between atoms: _251  and  _252
REMARK  112  A    between atoms: _251  and  _254
REMARK  113  A    between atoms: _254  and  _255
REMARK  114  A    between atoms: _255  and  _256
REMARK  115  A    between atoms: _259  and  _261
REMARK  116  A    between atoms: _261  and  _262
REMARK  117  A    between atoms: _261  and  _264
REMARK  118  A    between atoms: _264  and  _265
REMARK  119  A    between atoms: _265  and  _266
REMARK  120  A    between atoms: _268  and  _270
REMARK  121  A    between atoms: _270  and  _271
REMARK  122  A    between atoms: _270  and  _273
REMARK  123  A    between atoms: _273  and  _274
REMARK  124  A    between atoms: _279  and  _280
REMARK  125  A    between atoms: _282  and  _284
REMARK  126  A    between atoms: _284  and  _285
REMARK  127  A    between atoms: _284  and  _287
REMARK  128  A    between atoms: _287  and  _288
REMARK  129  A    between atoms: _293  and  _295
REMARK  130  A    between atoms: _295  and  _296
REMARK  131  A    between atoms: _295  and  _298
REMARK  132  A    between atoms: _301  and  _303
REMARK  133  A    between atoms: _303  and  _304
REMARK  134  A    between atoms: _303  and  _306
REMARK  135  A    between atoms: _309  and  _311
REMARK  136  A    between atoms: _311  and  _312
REMARK  137  A    between atoms: _311  and  _314
REMARK  138  A    between atoms: _314  and  _315
REMARK  139  A    between atoms: _315  and  _316
REMARK  140  A    between atoms: _318  and  _320
REMARK  141  A    between atoms: _320  and  _321
REMARK  142  A    between atoms: _320  and  _323
REMARK  143  A    between atoms: _323  and  _324
REMARK  144  A    between atoms: _324  and  _325
REMARK  145  A    between atoms: _328  and  _330
REMARK  146  A    between atoms: _330  and  _331
REMARK  147  A    between atoms: _330  and  _333
REMARK  148  A    between atoms: _333  and  _334
REMARK  149  A    between atoms: _340  and  _342
REMARK  150  A    between atoms: _342  and  _343
REMARK  151  A    between atoms: _342  and  _345
REMARK  152  A    between atoms: _345  and  _346
REMARK  153  A    between atoms: _349  and  _351
REMARK  154  A    between atoms: _351  and  _352
REMARK  155  A    between atoms: _351  and  _354
REMARK  156  A    between atoms: _354  and  _355
REMARK  157  A    between atoms: _355  and  _356
REMARK  158  A    between atoms: _359  and  _361
REMARK  159  A    between atoms: _361  and  _362
REMARK  160  A    between atoms: _364  and  _366
REMARK  161  A    between atoms: _366  and  _367
REMARK  162  A    between atoms: _369  and  _371
REMARK  163  A    between atoms: _371  and  _372
REMARK  164  A    between atoms: _375  and  _377
REMARK  165  A    between atoms: _377  and  _378
REMARK  166  A    between atoms: _377  and  _380
REMARK  167  A    between atoms: _380  and  _381
REMARK  168  A    between atoms: _386  and  _388
REMARK  169  A    between atoms: _388  and  _389
REMARK  170  A    between atoms: _388  and  _391
REMARK  171  A    between atoms: _391  and  _392
REMARK  172  A    between atoms: _395  and  _397
REMARK  173  A    between atoms: _397  and  _398
REMARK  174  A    between atoms: _397  and  _400
REMARK  175  A    between atoms: _400  and  _401
REMARK  176  A    between atoms: _403  and  _405
REMARK  177  A    between atoms: _405  and  _406
REMARK  178  A    between atoms: _405  and  _408
REMARK  179  A    between atoms: _408  and  _409
REMARK  180  A    between atoms: _412  and  _414
REMARK  181  A    between atoms: _414  and  _415
REMARK  182  A    between atoms: _414  and  _417
REMARK  183  A    between atoms: _417  and  _418
REMARK  184  A    between atoms: _421  and  _423
REMARK  185  A    between atoms: _423  and  _424
REMARK  186  A    between atoms: _423  and  _426
REMARK  187  A    between atoms: _426  and  _427
REMARK  188  A    between atoms: _430  and  _432
REMARK  189  A    between atoms: _432  and  _433
REMARK  190  A    between atoms: _432  and  _435
REMARK  191  A    between atoms: _435  and  _436
REMARK  192  A    between atoms: _439  and  _441
REMARK  193  A    between atoms: _441  and  _442
REMARK  194  A    between atoms: _441  and  _444
REMARK  195  A    between atoms: _444  and  _445
REMARK  196  A    between atoms: _447  and  _449
REMARK  197  A    between atoms: _449  and  _450
REMARK  198  A    between atoms: _449  and  _452
REMARK  199  A    between atoms: _452  and  _453
REMARK  200  A    between atoms: _456  and  _458
REMARK  201  A    between atoms: _458  and  _459
REMARK  202  A    between atoms: _458  and  _461
REMARK  203  A    between atoms: _461  and  _462
REMARK  204  A    between atoms: _468  and  _470
REMARK  205  A    between atoms: _470  and  _471
REMARK  206  A    between atoms: _473  and  _475
REMARK  207  A    between atoms: _475  and  _476
REMARK  208  A    between atoms: _475  and  _478
REMARK  209  A    between atoms: _478  and  _479
REMARK  210  A    between atoms: _485  and  _487
REMARK  211  A    between atoms: _487  and  _488
REMARK  212  A    between atoms: _487  and  _490
REMARK                            x       y       z     vdW  Elec       q    Type
REMARK                         _______ _______ _______ _____ _____    ______ ____
ROOT
ATOM      1  O   HOH     1     -30.382   5.319  19.654  0.00  0.00    +0.000 OA
ENDROOT
TORSDOF 0
REMARK  Name = ../refined-set-2016/4o0x/4o0x_pocket.pdb
REMARK  212 active torsions:
REMARK  status: ('A' for Active; 'I' for Inactive)
REMARK    1  A    between atoms: _1  and  _3
REMARK    2  A    between atoms: _3  and  _4
REMARK    3  A    between atoms: _3  and  _6
REMARK    4  A    between atoms: _6  and  _7
REMARK    5  A    between atoms: _7  and  _8
REMARK    6  A    between atoms: _8  and  _9
REMARK    7  A    between atoms: _9  and  _10
REMARK    8  A    between atoms: _14  and  _16
REMARK    9  A    between atoms: _16  and  _17
REMARK   10  A    between atoms: _16  and  _19
REMARK   11  A    between atoms: _19  and  _20
REMARK   12  A    between atoms: _23  and  _25
REMARK   13  A    between atoms: _25  and  _26
REMARK   14  A    between atoms: _28  and  _30
REMARK   15  A    between atoms: _30  and  _31
REMARK   16  A    between atoms: _30  and  _33
REMARK   17  A    between atoms: _33  and  _34
REMARK   18  A    between atoms: _34  and  _35
REMARK   19  A    between atoms: _38  and  _40
REMARK   20  A    between atoms: _40  and  _41
REMARK   21  A    between atoms: _43  and  _45
REMARK   22  A    between atoms: _45  and  _46
REMARK   23  A    between atoms: _45  and  _48
REMARK   24  A    between atoms: _48  and  _49
REMARK   25  A    between atoms: _51  and  _53
REMARK   26  A    between atoms: _53  and  _54
REMARK   27  A    between atoms: _53  and  _56
REMARK   28  A    between atoms: _56  and  _57
REMARK   29  A    between atoms: _60  and  _62
REMARK   30  A    between atoms: _62  and  _63
REMARK   31  A    between atoms: _65  and  _67
REMARK   32  A    between atoms: _67  and  _68
REMARK   33  A    between atoms: _67  and  _70
REMARK   34  A    between atoms: _70  and  _71
REMARK   35  A    between atoms: _74  and  _76
REMARK   36  A    between atoms: _76  and  _77
REMARK   37  A    between atoms: _76  and  _79
REMARK   38  A    between atoms: _82  and  _84
REMARK   39  A    between atoms: _84  and  _85
REMARK   40  A    between atoms: _84  and  _87
REMARK   41  A    between atoms: _89  and  _91
REMARK   42  A    between atoms: _91  and  _92
REMARK   43  A    between atoms: _91  and  _94
REMARK   44  A    between atoms: _94  and  _95
REMARK   45  A    between atoms: _98  and  _100
REMARK   46  A    between atoms: _100  and  _101
REMARK   47  A    between atoms: _100  and  _103
REMARK   48  A    between atoms: _106  and  _108
REMARK   49  A    between atoms: _108  and  _109
REMARK   50  A    between atoms: _112  and  _114
REMARK   51  A    between atoms: _114  and  _115
REMARK   52  A    between atoms: _114  and  _117
REMARK   53  A    between atoms: _120  and  _122
REMARK   54  A    between atoms: _122  and  _123
REMARK   55  A    between atoms: _122  and  _125
REMARK   56  A    between atoms: _125  and  _126
REMARK   57  A    between atoms: _126  and  _127
REMARK   58  A    between atoms: _127  and  _128
REMARK   59  A    between atoms: _128  and  _129
REMARK   60  A    between atoms: _133  and  _135
REMARK   61  A    between atoms: _135  and  _136
REMARK   62  A    between atoms: _135  and  _138
REMARK   63  A    between atoms: _138  and  _139
REMARK   64  A    between atoms: _139  and  _140
REMARK   65  A    between atoms: _140  and  _141
REMARK   66  A    between atoms: _141  and  _142
REMARK   67  A    between atoms: _146  and  _148
REMARK   68  A    between atoms: _148  and  _149
REMARK   69  A    between atoms: _148  and  _151
REMARK   70  A    between atoms: _151  and  _152
REMARK   71  A    between atoms: _152  and  _153
REMARK   72  A    between atoms: _155  and  _157
REMARK   73  A    between atoms: _157  and  _158
REMARK   74  A    between atoms: _157  and  _160
REMARK   75  A    between atoms: _160  and  _161
REMARK   76  A    between atoms: _166  and  _168
REMARK   77  A    between atoms: _168  and  _169
REMARK   78  A    between atoms: _168  and  _171
REMARK   79  A    between atoms: _171  and  _172
REMARK   80  A    between atoms: _172  and  _173
REMARK   81  A    between atoms: _176  and  _178
REMARK   82  A    between atoms: _178  and  _179
REMARK   83  A    between atoms: _178  and  _181
REMARK   84  A    between atoms: _184  and  _186
REMARK   85  A    between atoms: _186  and  _187
REMARK   86  A    between atoms: _186  and  _189
REMARK   87  A    between atoms: _189  and  _190
REMARK   88  A    between atoms: _193  and  _195
REMARK   89  A    between atoms: _195  and  _196
REMARK   90  A    between atoms: _195  and  _198
REMARK   91  A    between atoms: _198  and  _199
REMARK   92  A    between atoms: _199  and  _200
REMARK   93  A    between atoms: _202  and  _204
REMARK   94  A    between atoms: _204  and  _205
REMARK   95  A    between atoms: _204  and  _207
REMARK   96  A    between atoms: _207  and  _208
REMARK   97  A    between atoms: _208  and  _209
REMARK   98  A    between atoms: _209  and  _210
REMARK   99  A    between atoms: _219  and  _221
REMARK  100  A    between atoms: _221  and  _222
REMARK  101  A    between atoms: _221  and  _224
REMARK  102  A    between atoms: _224  and  _225
REMARK  103  A    between atoms: _230  and  _231
REMARK  104  A    between atoms: _233  and  _235
REMARK  105  A    between atoms: _235  and  _236
REMARK  106  A    between atoms: _235  and  _238
REMARK  107  A    between atoms: _241  and  _243
REMARK  108  A    between atoms: _243  and  _244
REMARK  109  A    between atoms: _243  and  _246
REMARK  110  A    between atoms: _249  and  _251
REMARK  111  A    between atoms: _251  and  _252
REMARK  112  A    between atoms: _251  and  _254
REMARK  113  A    between atoms: _254  and  _255
REMARK  114  A    between atoms: _255  and  _256
REMARK  115  A    between atoms: _259  and  _261
REMARK  116  A    between atoms: _261  and  _262
REMARK  117  A    between atoms: _261  and  _264
REMARK  118  A    between atoms: _264  and  _265
REMARK  119  A    between atoms: _265  and  _266
REMARK  120  A    between atoms: _268  and  _270
REMARK  121  A    between atoms: _270  and  _271
REMARK  122  A    between atoms: _270  and  _273
REMARK  123  A    between atoms: _273  and  _274
REMARK  124  A    between atoms: _279  and  _280
REMARK  125  A    between atoms: _282  and  _284
REMARK  126  A    between atoms: _284  and  _285
REMARK  127  A    between atoms: _284  and  _287
REMARK  128  A    between atoms: _287  and  _288
REMARK  129  A    between atoms: _293  and  _295
REMARK  130  A    between atoms: _295  and  _296
REMARK  131  A    between atoms: _295  and  _298
REMARK  132  A    between atoms: _301  and  _303
REMARK  133  A    between atoms: _303  and  _304
REMARK  134  A    between atoms: _303  and  _306
REMARK  135  A    between atoms: _309  and  _311
REMARK  136  A    between atoms: _311  and  _312
REMARK  137  A    between atoms: _311  and  _314
REMARK  138  A    between atoms: _314  and  _315
REMARK  139  A    between atoms: _315  and  _316
REMARK  140  A    between atoms: _318  and  _320
REMARK  141  A    between atoms: _320  and  _321
REMARK  142  A    between atoms: _320  and  _323
REMARK  143  A    between atoms: _323  and  _324
REMARK  144  A    between atoms: _324  and  _325
REMARK  145  A    between atoms: _328  and  _330
REMARK  146  A    between atoms: _330  and  _331
REMARK  147  A    between atoms: _330  and  _333
REMARK  148  A    between atoms: _333  and  _334
REMARK  149  A    between atoms: _340  and  _342
REMARK  150  A    between atoms: _342  and  _343
REMARK  151  A    between atoms: _342  and  _345
REMARK  152  A    between atoms: _345  and  _346
REMARK  153  A    between atoms: _349  and  _351
REMARK  154  A    between atoms: _351  and  _352
REMARK  155  A    between atoms: _351  and  _354
REMARK  156  A    between atoms: _354  and  _355
REMARK  157  A    between atoms: _355  and  _356
REMARK  158  A    between atoms: _359  and  _361
REMARK  159  A    between atoms: _361  and  _362
REMARK  160  A    between atoms: _364  and  _366
REMARK  161  A    between atoms: _366  and  _367
REMARK  162  A    between atoms: _369  and  _371
REMARK  163  A    between atoms: _371  and  _372
REMARK  164  A    between atoms: _375  and  _377
REMARK  165  A    between atoms: _377  and  _378
REMARK  166  A    between atoms: _377  and  _380
REMARK  167  A    between atoms: _380  and  _381
REMARK  168  A    between atoms: _386  and  _388
REMARK  169  A    between atoms: _388  and  _389
REMARK  170  A    between atoms: _388  and  _391
REMARK  171  A    between atoms: _391  and  _392
REMARK  172  A    between atoms: _395  and  _397
REMARK  173  A    between atoms: _397  and  _398
REMARK  174  A    between atoms: _397  and  _400
REMARK  175  A    between atoms: _400  and  _401
REMARK  176  A    between atoms: _403  and  _405
REMARK  177  A    between atoms: _405  and  _406
REMARK  178  A    between atoms: _405  and  _408
REMARK  179  A    between atoms: _408  and  _409
REMARK  180  A    between atoms: _412  and  _414
REMARK  181  A    between atoms: _414  and  _415
REMARK  182  A    between atoms: _414  and  _417
REMARK  183  A    between atoms: _417  and  _418
REMARK  184  A    between atoms: _421  and  _423
REMARK  185  A    between atoms: _423  and  _424
REMARK  186  A    between atoms: _423  and  _426
REMARK  187  A    between atoms: _426  and  _427
REMARK  188  A    between atoms: _430  and  _432
REMARK  189  A    between atoms: _432  and  _433
REMARK  190  A    between atoms: _432  and  _435
REMARK  191  A    between atoms: _435  and  _436
REMARK  192  A    between atoms: _439  and  _441
REMARK  193  A    between atoms: _441  and  _442
REMARK  194  A    between atoms: _441  and  _444
REMARK  195  A    between atoms: _444  and  _445
REMARK  196  A    between atoms: _447  and  _449
REMARK  197  A    between atoms: _449  and  _450
REMARK  198  A    between atoms: _449  and  _452
REMARK  199  A    between atoms: _452  and  _453
REMARK  200  A    between atoms: _456  and  _458
REMARK  201  A    between atoms: _458  and  _459
REMARK  202  A    between atoms: _458  and  _461
REMARK  203  A    between atoms: _461  and  _462
REMARK  204  A    between atoms: _468  and  _470
REMARK  205  A    between atoms: _470  and  _471
REMARK  206  A    between atoms: _473  and  _475
REMARK  207  A    between atoms: _475  and  _476
REMARK  208  A    between atoms: _475  and  _478
REMARK  209  A    between atoms: _478  and  _479
REMARK  210  A    between atoms: _485  and  _487
REMARK  211  A    between atoms: _487  and  _488
REMARK  212  A    between atoms: _487  and  _490
REMARK                            x       y       z     vdW  Elec       q    Type
REMARK                         _______ _______ _______ _____ _____    ______ ____
ROOT
ATOM      1  O   HOH     1     -19.789   2.237   7.890  0.00  0.00    +0.000 OA
ENDROOT
TORSDOF 0
REMARK  Name = ../refined-set-2016/4o0x/4o0x_pocket.pdb
REMARK  212 active torsions:
REMARK  status: ('A' for Active; 'I' for Inactive)
REMARK    1  A    between atoms: _1  and  _3
REMARK    2  A    between atoms: _3  and  _4
REMARK    3  A    between atoms: _3  and  _6
REMARK    4  A    between atoms: _6  and  _7
REMARK    5  A    between atoms: _7  and  _8
REMARK    6  A    between atoms: _8  and  _9
REMARK    7  A    between atoms: _9  and  _10
REMARK    8  A    between atoms: _14  and  _16
REMARK    9  A    between atoms: _16  and  _17
REMARK   10  A    between atoms: _16  and  _19
REMARK   11  A    between atoms: _19  and  _20
REMARK   12  A    between atoms: _23  and  _25
REMARK   13  A    between atoms: _25  and  _26
REMARK   14  A    between atoms: _28  and  _30
REMARK   15  A    between atoms: _30  and  _31
REMARK   16  A    between atoms: _30  and  _33
REMARK   17  A    between atoms: _33  and  _34
REMARK   18  A    between atoms: _34  and  _35
REMARK   19  A    between atoms: _38  and  _40
REMARK   20  A    between atoms: _40  and  _41
REMARK   21  A    between atoms: _43  and  _45
REMARK   22  A    between atoms: _45  and  _46
REMARK   23  A    between atoms: _45  and  _48
REMARK   24  A    between atoms: _48  and  _49
REMARK   25  A    between atoms: _51  and  _53
REMARK   26  A    between atoms: _53  and  _54
REMARK   27  A    between atoms: _53  and  _56
REMARK   28  A    between atoms: _56  and  _57
REMARK   29  A    between atoms: _60  and  _62
REMARK   30  A    between atoms: _62  and  _63
REMARK   31  A    between atoms: _65  and  _67
REMARK   32  A    between atoms: _67  and  _68
REMARK   33  A    between atoms: _67  and  _70
REMARK   34  A    between atoms: _70  and  _71
REMARK   35  A    between atoms: _74  and  _76
REMARK   36  A    between atoms: _76  and  _77
REMARK   37  A    between atoms: _76  and  _79
REMARK   38  A    between atoms: _82  and  _84
REMARK   39  A    between atoms: _84  and  _85
REMARK   40  A    between atoms: _84  and  _87
REMARK   41  A    between atoms: _89  and  _91
REMARK   42  A    between atoms: _91  and  _92
REMARK   43  A    between atoms: _91  and  _94
REMARK   44  A    between atoms: _94  and  _95
REMARK   45  A    between atoms: _98  and  _100
REMARK   46  A    between atoms: _100  and  _101
REMARK   47  A    between atoms: _100  and  _103
REMARK   48  A    between atoms: _106  and  _108
REMARK   49  A    between atoms: _108  and  _109
REMARK   50  A    between atoms: _112  and  _114
REMARK   51  A    between atoms: _114  and  _115
REMARK   52  A    between atoms: _114  and  _117
REMARK   53  A    between atoms: _120  and  _122
REMARK   54  A    between atoms: _122  and  _123
REMARK   55  A    between atoms: _122  and  _125
REMARK   56  A    between atoms: _125  and  _126
REMARK   57  A    between atoms: _126  and  _127
REMARK   58  A    between atoms: _127  and  _128
REMARK   59  A    between atoms: _128  and  _129
REMARK   60  A    between atoms: _133  and  _135
REMARK   61  A    between atoms: _135  and  _136
REMARK   62  A    between atoms: _135  and  _138
REMARK   63  A    between atoms: _138  and  _139
REMARK   64  A    between atoms: _139  and  _140
REMARK   65  A    between atoms: _140  and  _141
REMARK   66  A    between atoms: _141  and  _142
REMARK   67  A    between atoms: _146  and  _148
REMARK   68  A    between atoms: _148  and  _149
REMARK   69  A    between atoms: _148  and  _151
REMARK   70  A    between atoms: _151  and  _152
REMARK   71  A    between atoms: _152  and  _153
REMARK   72  A    between atoms: _155  and  _157
REMARK   73  A    between atoms: _157  and  _158
REMARK   74  A    between atoms: _157  and  _160
REMARK   75  A    between atoms: _160  and  _161
REMARK   76  A    between atoms: _166  and  _168
REMARK   77  A    between atoms: _168  and  _169
REMARK   78  A    between atoms: _168  and  _171
REMARK   79  A    between atoms: _171  and  _172
REMARK   80  A    between atoms: _172  and  _173
REMARK   81  A    between atoms: _176  and  _178
REMARK   82  A    between atoms: _178  and  _179
REMARK   83  A    between atoms: _178  and  _181
REMARK   84  A    between atoms: _184  and  _186
REMARK   85  A    between atoms: _186  and  _187
REMARK   86  A    between atoms: _186  and  _189
REMARK   87  A    between atoms: _189  and  _190
REMARK   88  A    between atoms: _193  and  _195
REMARK   89  A    between atoms: _195  and  _196
REMARK   90  A    between atoms: _195  and  _198
REMARK   91  A    between atoms: _198  and  _199
REMARK   92  A    between atoms: _199  and  _200
REMARK   93  A    between atoms: _202  and  _204
REMARK   94  A    between atoms: _204  and  _205
REMARK   95  A    between atoms: _204  and  _207
REMARK   96  A    between atoms: _207  and  _208
REMARK   97  A    between atoms: _208  and  _209
REMARK   98  A    between atoms: _209  and  _210
REMARK   99  A    between atoms: _219  and  _221
REMARK  100  A    between atoms: _221  and  _222
REMARK  101  A    between atoms: _221  and  _224
REMARK  102  A    between atoms: _224  and  _225
REMARK  103  A    between atoms: _230  and  _231
REMARK  104  A    between atoms: _233  and  _235
REMARK  105  A    between atoms: _235  and  _236
REMARK  106  A    between atoms: _235  and  _238
REMARK  107  A    between atoms: _241  and  _243
REMARK  108  A    between atoms: _243  and  _244
REMARK  109  A    between atoms: _243  and  _246
REMARK  110  A    between atoms: _249  and  _251
REMARK  111  A    between atoms: _251  and  _252
REMARK  112  A    between atoms: _251  and  _254
REMARK  113  A    between atoms: _254  and  _255
REMARK  114  A    between atoms: _255  and  _256
REMARK  115  A    between atoms: _259  and  _261
REMARK  116  A    between atoms: _261  and  _262
REMARK  117  A    between atoms: _261  and  _264
REMARK  118  A    between atoms: _264  and  _265
REMARK  119  A    between atoms: _265  and  _266
REMARK  120  A    between atoms: _268  and  _270
REMARK  121  A    between atoms: _270  and  _271
REMARK  122  A    between atoms: _270  and  _273
REMARK  123  A    between atoms: _273  and  _274
REMARK  124  A    between atoms: _279  and  _280
REMARK  125  A    between atoms: _282  and  _284
REMARK  126  A    between atoms: _284  and  _285
REMARK  127  A    between atoms: _284  and  _287
REMARK  128  A    between atoms: _287  and  _288
REMARK  129  A    between atoms: _293  and  _295
REMARK  130  A    between atoms: _295  and  _296
REMARK  131  A    between atoms: _295  and  _298
REMARK  132  A    between atoms: _301  and  _303
REMARK  133  A    between atoms: _303  and  _304
REMARK  134  A    between atoms: _303  and  _306
REMARK  135  A    between atoms: _309  and  _311
REMARK  136  A    between atoms: _311  and  _312
REMARK  137  A    between atoms: _311  and  _314
REMARK  138  A    between atoms: _314  and  _315
REMARK  139  A    between atoms: _315  and  _316
REMARK  140  A    between atoms: _318  and  _320
REMARK  141  A    between atoms: _320  and  _321
REMARK  142  A    between atoms: _320  and  _323
REMARK  143  A    between atoms: _323  and  _324
REMARK  144  A    between atoms: _324  and  _325
REMARK  145  A    between atoms: _328  and  _330
REMARK  146  A    between atoms: _330  and  _331
REMARK  147  A    between atoms: _330  and  _333
REMARK  148  A    between atoms: _333  and  _334
REMARK  149  A    between atoms: _340  and  _342
REMARK  150  A    between atoms: _342  and  _343
REMARK  151  A    between atoms: _342  and  _345
REMARK  152  A    between atoms: _345  and  _346
REMARK  153  A    between atoms: _349  and  _351
REMARK  154  A    between atoms: _351  and  _352
REMARK  155  A    between atoms: _351  and  _354
REMARK  156  A    between atoms: _354  and  _355
REMARK  157  A    between atoms: _355  and  _356
REMARK  158  A    between atoms: _359  and  _361
REMARK  159  A    between atoms: _361  and  _362
REMARK  160  A    between atoms: _364  and  _366
REMARK  161  A    between atoms: _366  and  _367
REMARK  162  A    between atoms: _369  and  _371
REMARK  163  A    between atoms: _371  and  _372
REMARK  164  A    between atoms: _375  and  _377
REMARK  165  A    between atoms: _377  and  _378
REMARK  166  A    between atoms: _377  and  _380
REMARK  167  A    between atoms: _380  and  _381
REMARK  168  A    between atoms: _386  and  _388
REMARK  169  A    between atoms: _388  and  _389
REMARK  170  A    between atoms: _388  and  _391
REMARK  171  A    between atoms: _391  and  _392
REMARK  172  A    between atoms: _395  and  _397
REMARK  173  A    between atoms: _397  and  _398
REMARK  174  A    between atoms: _397  and  _400
REMARK  175  A    between atoms: _400  and  _401
REMARK  176  A    between atoms: _403  and  _405
REMARK  177  A    between atoms: _405  and  _406
REMARK  178  A    between atoms: _405  and  _408
REMARK  179  A    between atoms: _408  and  _409
REMARK  180  A    between atoms: _412  and  _414
REMARK  181  A    between atoms: _414  and  _415
REMARK  182  A    between atoms: _414  and  _417
REMARK  183  A    between atoms: _417  and  _418
REMARK  184  A    between atoms: _421  and  _423
REMARK  185  A    between atoms: _423  and  _424
REMARK  186  A    between atoms: _423  and  _426
REMARK  187  A    between atoms: _426  and  _427
REMARK  188  A    between atoms: _430  and  _432
REMARK  189  A    between atoms: _432  and  _433
REMARK  190  A    between atoms: _432  and  _435
REMARK  191  A    between atoms: _435  and  _436
REMARK  192  A    between atoms: _439  and  _441
REMARK  193  A    between atoms: _441  and  _442
REMARK  194  A    between atoms: _441  and  _444
REMARK  195  A    between atoms: _444  and  _445
REMARK  196  A    between atoms: _447  and  _449
REMARK  197  A    between atoms: _449  and  _450
REMARK  198  A    between atoms: _449  and  _452
REMARK  199  A    between atoms: _452  and  _453
REMARK  200  A    between atoms: _456  and  _458
REMARK  201  A    between atoms: _458  and  _459
REMARK  202  A    between atoms: _458  and  _461
REMARK  203  A    between atoms: _461  and  _462
REMARK  204  A    between atoms: _468  and  _470
REMARK  205  A    between atoms: _470  and  _471
REMARK  206  A    between atoms: _473  and  _475
REMARK  207  A    between atoms: _475  and  _476
REMARK  208  A    between atoms: _475  and  _478
REMARK  209  A    between atoms: _478  and  _479
REMARK  210  A    between atoms: _485  and  _487
REMARK  211  A    between atoms: _487  and  _488
REMARK  212  A    between atoms: _487  and  _490
REMARK                            x       y       z     vdW  Elec       q    Type
REMARK                         _______ _______ _______ _____ _____    ______ ____
ROOT
ATOM      1  O   HOH     1     -17.244  -9.822  12.602  0.00  0.00    +0.000 OA
ENDROOT
TORSDOF 0
REMARK  Name = ../refined-set-2016/4o0x/4o0x_pocket.pdb
REMARK  212 active torsions:
REMARK  status: ('A' for Active; 'I' for Inactive)
REMARK    1  A    between atoms: _1  and  _3
REMARK    2  A    between atoms: _3  and  _4
REMARK    3  A    between atoms: _3  and  _6
REMARK    4  A    between atoms: _6  and  _7
REMARK    5  A    between atoms: _7  and  _8
REMARK    6  A    between atoms: _8  and  _9
REMARK    7  A    between atoms: _9  and  _10
REMARK    8  A    between atoms: _14  and  _16
REMARK    9  A    between atoms: _16  and  _17
REMARK   10  A    between atoms: _16  and  _19
REMARK   11  A    between atoms: _19  and  _20
REMARK   12  A    between atoms: _23  and  _25
REMARK   13  A    between atoms: _25  and  _26
REMARK   14  A    between atoms: _28  and  _30
REMARK   15  A    between atoms: _30  and  _31
REMARK   16  A    between atoms: _30  and  _33
REMARK   17  A    between atoms: _33  and  _34
REMARK   18  A    between atoms: _34  and  _35
REMARK   19  A    between atoms: _38  and  _40
REMARK   20  A    between atoms: _40  and  _41
REMARK   21  A    between atoms: _43  and  _45
REMARK   22  A    between atoms: _45  and  _46
REMARK   23  A    between atoms: _45  and  _48
REMARK   24  A    between atoms: _48  and  _49
REMARK   25  A    between atoms: _51  and  _53
REMARK   26  A    between atoms: _53  and  _54
REMARK   27  A    between atoms: _53  and  _56
REMARK   28  A    between atoms: _56  and  _57
REMARK   29  A    between atoms: _60  and  _62
REMARK   30  A    between atoms: _62  and  _63
REMARK   31  A    between atoms: _65  and  _67
REMARK   32  A    between atoms: _67  and  _68
REMARK   33  A    between atoms: _67  and  _70
REMARK   34  A    between atoms: _70  and  _71
REMARK   35  A    between atoms: _74  and  _76
REMARK   36  A    between atoms: _76  and  _77
REMARK   37  A    between atoms: _76  and  _79
REMARK   38  A    between atoms: _82  and  _84
REMARK   39  A    between atoms: _84  and  _85
REMARK   40  A    between atoms: _84  and  _87
REMARK   41  A    between atoms: _89  and  _91
REMARK   42  A    between atoms: _91  and  _92
REMARK   43  A    between atoms: _91  and  _94
REMARK   44  A    between atoms: _94  and  _95
REMARK   45  A    between atoms: _98  and  _100
REMARK   46  A    between atoms: _100  and  _101
REMARK   47  A    between atoms: _100  and  _103
REMARK   48  A    between atoms: _106  and  _108
REMARK   49  A    between atoms: _108  and  _109
REMARK   50  A    between atoms: _112  and  _114
REMARK   51  A    between atoms: _114  and  _115
REMARK   52  A    between atoms: _114  and  _117
REMARK   53  A    between atoms: _120  and  _122
REMARK   54  A    between atoms: _122  and  _123
REMARK   55  A    between atoms: _122  and  _125
REMARK   56  A    between atoms: _125  and  _126
REMARK   57  A    between atoms: _126  and  _127
REMARK   58  A    between atoms: _127  and  _128
REMARK   59  A    between atoms: _128  and  _129
REMARK   60  A    between atoms: _133  and  _135
REMARK   61  A    between atoms: _135  and  _136
REMARK   62  A    between atoms: _135  and  _138
REMARK   63  A    between atoms: _138  and  _139
REMARK   64  A    between atoms: _139  and  _140
REMARK   65  A    between atoms: _140  and  _141
REMARK   66  A    between atoms: _141  and  _142
REMARK   67  A    between atoms: _146  and  _148
REMARK   68  A    between atoms: _148  and  _149
REMARK   69  A    between atoms: _148  and  _151
REMARK   70  A    between atoms: _151  and  _152
REMARK   71  A    between atoms: _152  and  _153
REMARK   72  A    between atoms: _155  and  _157
REMARK   73  A    between atoms: _157  and  _158
REMARK   74  A    between atoms: _157  and  _160
REMARK   75  A    between atoms: _160  and  _161
REMARK   76  A    between atoms: _166  and  _168
REMARK   77  A    between atoms: _168  and  _169
REMARK   78  A    between atoms: _168  and  _171
REMARK   79  A    between atoms: _171  and  _172
REMARK   80  A    between atoms: _172  and  _173
REMARK   81  A    between atoms: _176  and  _178
REMARK   82  A    between atoms: _178  and  _179
REMARK   83  A    between atoms: _178  and  _181
REMARK   84  A    between atoms: _184  and  _186
REMARK   85  A    between atoms: _186  and  _187
REMARK   86  A    between atoms: _186  and  _189
REMARK   87  A    between atoms: _189  and  _190
REMARK   88  A    between atoms: _193  and  _195
REMARK   89  A    between atoms: _195  and  _196
REMARK   90  A    between atoms: _195  and  _198
REMARK   91  A    between atoms: _198  and  _199
REMARK   92  A    between atoms: _199  and  _200
REMARK   93  A    between atoms: _202  and  _204
REMARK   94  A    between atoms: _204  and  _205
REMARK   95  A    between atoms: _204  and  _207
REMARK   96  A    between atoms: _207  and  _208
REMARK   97  A    between atoms: _208  and  _209
REMARK   98  A    between atoms: _209  and  _210
REMARK   99  A    between atoms: _219  and  _221
REMARK  100  A    between atoms: _221  and  _222
REMARK  101  A    between atoms: _221  and  _224
REMARK  102  A    between atoms: _224  and  _225
REMARK  103  A    between atoms: _230  and  _231
REMARK  104  A    between atoms: _233  and  _235
REMARK  105  A    between atoms: _235  and  _236
REMARK  106  A    between atoms: _235  and  _238
REMARK  107  A    between atoms: _241  and  _243
REMARK  108  A    between atoms: _243  and  _244
REMARK  109  A    between atoms: _243  and  _246
REMARK  110  A    between atoms: _249  and  _251
REMARK  111  A    between atoms: _251  and  _252
REMARK  112  A    between atoms: _251  and  _254
REMARK  113  A    between atoms: _254  and  _255
REMARK  114  A    between atoms: _255  and  _256
REMARK  115  A    between atoms: _259  and  _261
REMARK  116  A    between atoms: _261  and  _262
REMARK  117  A    between atoms: _261  and  _264
REMARK  118  A    between atoms: _264  and  _265
REMARK  119  A    between atoms: _265  and  _266
REMARK  120  A    between atoms: _268  and  _270
REMARK  121  A    between atoms: _270  and  _271
REMARK  122  A    between atoms: _270  and  _273
REMARK  123  A    between atoms: _273  and  _274
REMARK  124  A    between atoms: _279  and  _280
REMARK  125  A    between atoms: _282  and  _284
REMARK  126  A    between atoms: _284  and  _285
REMARK  127  A    between atoms: _284  and  _287
REMARK  128  A    between atoms: _287  and  _288
REMARK  129  A    between atoms: _293  and  _295
REMARK  130  A    between atoms: _295  and  _296
REMARK  131  A    between atoms: _295  and  _298
REMARK  132  A    between atoms: _301  and  _303
REMARK  133  A    between atoms: _303  and  _304
REMARK  134  A    between atoms: _303  and  _306
REMARK  135  A    between atoms: _309  and  _311
REMARK  136  A    between atoms: _311  and  _312
REMARK  137  A    between atoms: _311  and  _314
REMARK  138  A    between atoms: _314  and  _315
REMARK  139  A    between atoms: _315  and  _316
REMARK  140  A    between atoms: _318  and  _320
REMARK  141  A    between atoms: _320  and  _321
REMARK  142  A    between atoms: _320  and  _323
REMARK  143  A    between atoms: _323  and  _324
REMARK  144  A    between atoms: _324  and  _325
REMARK  145  A    between atoms: _328  and  _330
REMARK  146  A    between atoms: _330  and  _331
REMARK  147  A    between atoms: _330  and  _333
REMARK  148  A    between atoms: _333  and  _334
REMARK  149  A    between atoms: _340  and  _342
REMARK  150  A    between atoms: _342  and  _343
REMARK  151  A    between atoms: _342  and  _345
REMARK  152  A    between atoms: _345  and  _346
REMARK  153  A    between atoms: _349  and  _351
REMARK  154  A    between atoms: _351  and  _352
REMARK  155  A    between atoms: _351  and  _354
REMARK  156  A    between atoms: _354  and  _355
REMARK  157  A    between atoms: _355  and  _356
REMARK  158  A    between atoms: _359  and  _361
REMARK  159  A    between atoms: _361  and  _362
REMARK  160  A    between atoms: _364  and  _366
REMARK  161  A    between atoms: _366  and  _367
REMARK  162  A    between atoms: _369  and  _371
REMARK  163  A    between atoms: _371  and  _372
REMARK  164  A    between atoms: _375  and  _377
REMARK  165  A    between atoms: _377  and  _378
REMARK  166  A    between atoms: _377  and  _380
REMARK  167  A    between atoms: _380  and  _381
REMARK  168  A    between atoms: _386  and  _388
REMARK  169  A    between atoms: _388  and  _389
REMARK  170  A    between atoms: _388  and  _391
REMARK  171  A    between atoms: _391  and  _392
REMARK  172  A    between atoms: _395  and  _397
REMARK  173  A    between atoms: _397  and  _398
REMARK  174  A    between atoms: _397  and  _400
REMARK  175  A    between atoms: _400  and  _401
REMARK  176  A    between atoms: _403  and  _405
REMARK  177  A    between atoms: _405  and  _406
REMARK  178  A    between atoms: _405  and  _408
REMARK  179  A    between atoms: _408  and  _409
REMARK  180  A    between atoms: _412  and  _414
REMARK  181  A    between atoms: _414  and  _415
REMARK  182  A    between atoms: _414  and  _417
REMARK  183  A    between atoms: _417  and  _418
REMARK  184  A    between atoms: _421  and  _423
REMARK  185  A    between atoms: _423  and  _424
REMARK  186  A    between atoms: _423  and  _426
REMARK  187  A    between atoms: _426  and  _427
REMARK  188  A    between atoms: _430  and  _432
REMARK  189  A    between atoms: _432  and  _433
REMARK  190  A    between atoms: _432  and  _435
REMARK  191  A    between atoms: _435  and  _436
REMARK  192  A    between atoms: _439  and  _441
REMARK  193  A    between atoms: _441  and  _442
REMARK  194  A    between atoms: _441  and  _444
REMARK  195  A    between atoms: _444  and  _445
REMARK  196  A    between atoms: _447  and  _449
REMARK  197  A    between atoms: _449  and  _450
REMARK  198  A    between atoms: _449  and  _452
REMARK  199  A    between atoms: _452  and  _453
REMARK  200  A    between atoms: _456  and  _458
REMARK  201  A    between atoms: _458  and  _459
REMARK  202  A    between atoms: _458  and  _461
REMARK  203  A    between atoms: _461  and  _462
REMARK  204  A    between atoms: _468  and  _470
REMARK  205  A    between atoms: _470  and  _471
REMARK  206  A    between atoms: _473  and  _475
REMARK  207  A    between atoms: _475  and  _476
REMARK  208  A    between atoms: _475  and  _478
REMARK  209  A    between atoms: _478  and  _479
REMARK  210  A    between atoms: _485  and  _487
REMARK  211  A    between atoms: _487  and  _488
REMARK  212  A    between atoms: _487  and  _490
REMARK                            x       y       z     vdW  Elec       q    Type
REMARK                         _______ _______ _______ _____ _____    ______ ____
ROOT
ATOM      1  O   HOH     1     -20.084  -5.671  10.595  0.00  0.00    +0.000 OA
ENDROOT
TORSDOF 0
REMARK  Name = ../refined-set-2016/4o0x/4o0x_pocket.pdb
REMARK  212 active torsions:
REMARK  status: ('A' for Active; 'I' for Inactive)
REMARK    1  A    between atoms: _1  and  _3
REMARK    2  A    between atoms: _3  and  _4
REMARK    3  A    between atoms: _3  and  _6
REMARK    4  A    between atoms: _6  and  _7
REMARK    5  A    between atoms: _7  and  _8
REMARK    6  A    between atoms: _8  and  _9
REMARK    7  A    between atoms: _9  and  _10
REMARK    8  A    between atoms: _14  and  _16
REMARK    9  A    between atoms: _16  and  _17
REMARK   10  A    between atoms: _16  and  _19
REMARK   11  A    between atoms: _19  and  _20
REMARK   12  A    between atoms: _23  and  _25
REMARK   13  A    between atoms: _25  and  _26
REMARK   14  A    between atoms: _28  and  _30
REMARK   15  A    between atoms: _30  and  _31
REMARK   16  A    between atoms: _30  and  _33
REMARK   17  A    between atoms: _33  and  _34
REMARK   18  A    between atoms: _34  and  _35
REMARK   19  A    between atoms: _38  and  _40
REMARK   20  A    between atoms: _40  and  _41
REMARK   21  A    between atoms: _43  and  _45
REMARK   22  A    between atoms: _45  and  _46
REMARK   23  A    between atoms: _45  and  _48
REMARK   24  A    between atoms: _48  and  _49
REMARK   25  A    between atoms: _51  and  _53
REMARK   26  A    between atoms: _53  and  _54
REMARK   27  A    between atoms: _53  and  _56
REMARK   28  A    between atoms: _56  and  _57
REMARK   29  A    between atoms: _60  and  _62
REMARK   30  A    between atoms: _62  and  _63
REMARK   31  A    between atoms: _65  and  _67
REMARK   32  A    between atoms: _67  and  _68
REMARK   33  A    between atoms: _67  and  _70
REMARK   34  A    between atoms: _70  and  _71
REMARK   35  A    between atoms: _74  and  _76
REMARK   36  A    between atoms: _76  and  _77
REMARK   37  A    between atoms: _76  and  _79
REMARK   38  A    between atoms: _82  and  _84
REMARK   39  A    between atoms: _84  and  _85
REMARK   40  A    between atoms: _84  and  _87
REMARK   41  A    between atoms: _89  and  _91
REMARK   42  A    between atoms: _91  and  _92
REMARK   43  A    between atoms: _91  and  _94
REMARK   44  A    between atoms: _94  and  _95
REMARK   45  A    between atoms: _98  and  _100
REMARK   46  A    between atoms: _100  and  _101
REMARK   47  A    between atoms: _100  and  _103
REMARK   48  A    between atoms: _106  and  _108
REMARK   49  A    between atoms: _108  and  _109
REMARK   50  A    between atoms: _112  and  _114
REMARK   51  A    between atoms: _114  and  _115
REMARK   52  A    between atoms: _114  and  _117
REMARK   53  A    between atoms: _120  and  _122
REMARK   54  A    between atoms: _122  and  _123
REMARK   55  A    between atoms: _122  and  _125
REMARK   56  A    between atoms: _125  and  _126
REMARK   57  A    between atoms: _126  and  _127
REMARK   58  A    between atoms: _127  and  _128
REMARK   59  A    between atoms: _128  and  _129
REMARK   60  A    between atoms: _133  and  _135
REMARK   61  A    between atoms: _135  and  _136
REMARK   62  A    between atoms: _135  and  _138
REMARK   63  A    between atoms: _138  and  _139
REMARK   64  A    between atoms: _139  and  _140
REMARK   65  A    between atoms: _140  and  _141
REMARK   66  A    between atoms: _141  and  _142
REMARK   67  A    between atoms: _146  and  _148
REMARK   68  A    between atoms: _148  and  _149
REMARK   69  A    between atoms: _148  and  _151
REMARK   70  A    between atoms: _151  and  _152
REMARK   71  A    between atoms: _152  and  _153
REMARK   72  A    between atoms: _155  and  _157
REMARK   73  A    between atoms: _157  and  _158
REMARK   74  A    between atoms: _157  and  _160
REMARK   75  A    between atoms: _160  and  _161
REMARK   76  A    between atoms: _166  and  _168
REMARK   77  A    between atoms: _168  and  _169
REMARK   78  A    between atoms: _168  and  _171
REMARK   79  A    between atoms: _171  and  _172
REMARK   80  A    between atoms: _172  and  _173
REMARK   81  A    between atoms: _176  and  _178
REMARK   82  A    between atoms: _178  and  _179
REMARK   83  A    between atoms: _178  and  _181
REMARK   84  A    between atoms: _184  and  _186
REMARK   85  A    between atoms: _186  and  _187
REMARK   86  A    between atoms: _186  and  _189
REMARK   87  A    between atoms: _189  and  _190
REMARK   88  A    between atoms: _193  and  _195
REMARK   89  A    between atoms: _195  and  _196
REMARK   90  A    between atoms: _195  and  _198
REMARK   91  A    between atoms: _198  and  _199
REMARK   92  A    between atoms: _199  and  _200
REMARK   93  A    between atoms: _202  and  _204
REMARK   94  A    between atoms: _204  and  _205
REMARK   95  A    between atoms: _204  and  _207
REMARK   96  A    between atoms: _207  and  _208
REMARK   97  A    between atoms: _208  and  _209
REMARK   98  A    between atoms: _209  and  _210
REMARK   99  A    between atoms: _219  and  _221
REMARK  100  A    between atoms: _221  and  _222
REMARK  101  A    between atoms: _221  and  _224
REMARK  102  A    between atoms: _224  and  _225
REMARK  103  A    between atoms: _230  and  _231
REMARK  104  A    between atoms: _233  and  _235
REMARK  105  A    between atoms: _235  and  _236
REMARK  106  A    between atoms: _235  and  _238
REMARK  107  A    between atoms: _241  and  _243
REMARK  108  A    between atoms: _243  and  _244
REMARK  109  A    between atoms: _243  and  _246
REMARK  110  A    between atoms: _249  and  _251
REMARK  111  A    between atoms: _251  and  _252
REMARK  112  A    between atoms: _251  and  _254
REMARK  113  A    between atoms: _254  and  _255
REMARK  114  A    between atoms: _255  and  _256
REMARK  115  A    between atoms: _259  and  _261
REMARK  116  A    between atoms: _261  and  _262
REMARK  117  A    between atoms: _261  and  _264
REMARK  118  A    between atoms: _264  and  _265
REMARK  119  A    between atoms: _265  and  _266
REMARK  120  A    between atoms: _268  and  _270
REMARK  121  A    between atoms: _270  and  _271
REMARK  122  A    between atoms: _270  and  _273
REMARK  123  A    between atoms: _273  and  _274
REMARK  124  A    between atoms: _279  and  _280
REMARK  125  A    between atoms: _282  and  _284
REMARK  126  A    between atoms: _284  and  _285
REMARK  127  A    between atoms: _284  and  _287
REMARK  128  A    between atoms: _287  and  _288
REMARK  129  A    between atoms: _293  and  _295
REMARK  130  A    between atoms: _295  and  _296
REMARK  131  A    between atoms: _295  and  _298
REMARK  132  A    between atoms: _301  and  _303
REMARK  133  A    between atoms: _303  and  _304
REMARK  134  A    between atoms: _303  and  _306
REMARK  135  A    between atoms: _309  and  _311
REMARK  136  A    between atoms: _311  and  _312
REMARK  137  A    between atoms: _311  and  _314
REMARK  138  A    between atoms: _314  and  _315
REMARK  139  A    between atoms: _315  and  _316
REMARK  140  A    between atoms: _318  and  _320
REMARK  141  A    between atoms: _320  and  _321
REMARK  142  A    between atoms: _320  and  _323
REMARK  143  A    between atoms: _323  and  _324
REMARK  144  A    between atoms: _324  and  _325
REMARK  145  A    between atoms: _328  and  _330
REMARK  146  A    between atoms: _330  and  _331
REMARK  147  A    between atoms: _330  and  _333
REMARK  148  A    between atoms: _333  and  _334
REMARK  149  A    between atoms: _340  and  _342
REMARK  150  A    between atoms: _342  and  _343
REMARK  151  A    between atoms: _342  and  _345
REMARK  152  A    between atoms: _345  and  _346
REMARK  153  A    between atoms: _349  and  _351
REMARK  154  A    between atoms: _351  and  _352
REMARK  155  A    between atoms: _351  and  _354
REMARK  156  A    between atoms: _354  and  _355
REMARK  157  A    between atoms: _355  and  _356
REMARK  158  A    between atoms: _359  and  _361
REMARK  159  A    between atoms: _361  and  _362
REMARK  160  A    between atoms: _364  and  _366
REMARK  161  A    between atoms: _366  and  _367
REMARK  162  A    between atoms: _369  and  _371
REMARK  163  A    between atoms: _371  and  _372
REMARK  164  A    between atoms: _375  and  _377
REMARK  165  A    between atoms: _377  and  _378
REMARK  166  A    between atoms: _377  and  _380
REMARK  167  A    between atoms: _380  and  _381
REMARK  168  A    between atoms: _386  and  _388
REMARK  169  A    between atoms: _388  and  _389
REMARK  170  A    between atoms: _388  and  _391
REMARK  171  A    between atoms: _391  and  _392
REMARK  172  A    between atoms: _395  and  _397
REMARK  173  A    between atoms: _397  and  _398
REMARK  174  A    between atoms: _397  and  _400
REMARK  175  A    between atoms: _400  and  _401
REMARK  176  A    between atoms: _403  and  _405
REMARK  177  A    between atoms: _405  and  _406
REMARK  178  A    between atoms: _405  and  _408
REMARK  179  A    between atoms: _408  and  _409
REMARK  180  A    between atoms: _412  and  _414
REMARK  181  A    between atoms: _414  and  _415
REMARK  182  A    between atoms: _414  and  _417
REMARK  183  A    between atoms: _417  and  _418
REMARK  184  A    between atoms: _421  and  _423
REMARK  185  A    between atoms: _423  and  _424
REMARK  186  A    between atoms: _423  and  _426
REMARK  187  A    between atoms: _426  and  _427
REMARK  188  A    between atoms: _430  and  _432
REMARK  189  A    between atoms: _432  and  _433
REMARK  190  A    between atoms: _432  and  _435
REMARK  191  A    between atoms: _435  and  _436
REMARK  192  A    between atoms: _439  and  _441
REMARK  193  A    between atoms: _441  and  _442
REMARK  194  A    between atoms: _441  and  _444
REMARK  195  A    between atoms: _444  and  _445
REMARK  196  A    between atoms: _447  and  _449
REMARK  197  A    between atoms: _449  and  _450
REMARK  198  A    between atoms: _449  and  _452
REMARK  199  A    between atoms: _452  and  _453
REMARK  200  A    between atoms: _456  and  _458
REMARK  201  A    between atoms: _458  and  _459
REMARK  202  A    between atoms: _458  and  _461
REMARK  203  A    between atoms: _461  and  _462
REMARK  204  A    between atoms: _468  and  _470
REMARK  205  A    between atoms: _470  and  _471
REMARK  206  A    between atoms: _473  and  _475
REMARK  207  A    between atoms: _475  and  _476
REMARK  208  A    between atoms: _475  and  _478
REMARK  209  A    between atoms: _478  and  _479
REMARK  210  A    between atoms: _485  and  _487
REMARK  211  A    between atoms: _487  and  _488
REMARK  212  A    between atoms: _487  and  _490
REMARK                            x       y       z     vdW  Elec       q    Type
REMARK                         _______ _______ _______ _____ _____    ______ ____
ROOT
ATOM      1  O   HOH     1     -18.040  -1.501   9.854  0.00  0.00    +0.000 OA
ENDROOT
TORSDOF 0
REMARK  Name = ../refined-set-2016/4o0x/4o0x_pocket.pdb
REMARK  212 active torsions:
REMARK  status: ('A' for Active; 'I' for Inactive)
REMARK    1  A    between atoms: _1  and  _3
REMARK    2  A    between atoms: _3  and  _4
REMARK    3  A    between atoms: _3  and  _6
REMARK    4  A    between atoms: _6  and  _7
REMARK    5  A    between atoms: _7  and  _8
REMARK    6  A    between atoms: _8  and  _9
REMARK    7  A    between atoms: _9  and  _10
REMARK    8  A    between atoms: _14  and  _16
REMARK    9  A    between atoms: _16  and  _17
REMARK   10  A    between atoms: _16  and  _19
REMARK   11  A    between atoms: _19  and  _20
REMARK   12  A    between atoms: _23  and  _25
REMARK   13  A    between atoms: _25  and  _26
REMARK   14  A    between atoms: _28  and  _30
REMARK   15  A    between atoms: _30  and  _31
REMARK   16  A    between atoms: _30  and  _33
REMARK   17  A    between atoms: _33  and  _34
REMARK   18  A    between atoms: _34  and  _35
REMARK   19  A    between atoms: _38  and  _40
REMARK   20  A    between atoms: _40  and  _41
REMARK   21  A    between atoms: _43  and  _45
REMARK   22  A    between atoms: _45  and  _46
REMARK   23  A    between atoms: _45  and  _48
REMARK   24  A    between atoms: _48  and  _49
REMARK   25  A    between atoms: _51  and  _53
REMARK   26  A    between atoms: _53  and  _54
REMARK   27  A    between atoms: _53  and  _56
REMARK   28  A    between atoms: _56  and  _57
REMARK   29  A    between atoms: _60  and  _62
REMARK   30  A    between atoms: _62  and  _63
REMARK   31  A    between atoms: _65  and  _67
REMARK   32  A    between atoms: _67  and  _68
REMARK   33  A    between atoms: _67  and  _70
REMARK   34  A    between atoms: _70  and  _71
REMARK   35  A    between atoms: _74  and  _76
REMARK   36  A    between atoms: _76  and  _77
REMARK   37  A    between atoms: _76  and  _79
REMARK   38  A    between atoms: _82  and  _84
REMARK   39  A    between atoms: _84  and  _85
REMARK   40  A    between atoms: _84  and  _87
REMARK   41  A    between atoms: _89  and  _91
REMARK   42  A    between atoms: _91  and  _92
REMARK   43  A    between atoms: _91  and  _94
REMARK   44  A    between atoms: _94  and  _95
REMARK   45  A    between atoms: _98  and  _100
REMARK   46  A    between atoms: _100  and  _101
REMARK   47  A    between atoms: _100  and  _103
REMARK   48  A    between atoms: _106  and  _108
REMARK   49  A    between atoms: _108  and  _109
REMARK   50  A    between atoms: _112  and  _114
REMARK   51  A    between atoms: _114  and  _115
REMARK   52  A    between atoms: _114  and  _117
REMARK   53  A    between atoms: _120  and  _122
REMARK   54  A    between atoms: _122  and  _123
REMARK   55  A    between atoms: _122  and  _125
REMARK   56  A    between atoms: _125  and  _126
REMARK   57  A    between atoms: _126  and  _127
REMARK   58  A    between atoms: _127  and  _128
REMARK   59  A    between atoms: _128  and  _129
REMARK   60  A    between atoms: _133  and  _135
REMARK   61  A    between atoms: _135  and  _136
REMARK   62  A    between atoms: _135  and  _138
REMARK   63  A    between atoms: _138  and  _139
REMARK   64  A    between atoms: _139  and  _140
REMARK   65  A    between atoms: _140  and  _141
REMARK   66  A    between atoms: _141  and  _142
REMARK   67  A    between atoms: _146  and  _148
REMARK   68  A    between atoms: _148  and  _149
REMARK   69  A    between atoms: _148  and  _151
REMARK   70  A    between atoms: _151  and  _152
REMARK   71  A    between atoms: _152  and  _153
REMARK   72  A    between atoms: _155  and  _157
REMARK   73  A    between atoms: _157  and  _158
REMARK   74  A    between atoms: _157  and  _160
REMARK   75  A    between atoms: _160  and  _161
REMARK   76  A    between atoms: _166  and  _168
REMARK   77  A    between atoms: _168  and  _169
REMARK   78  A    between atoms: _168  and  _171
REMARK   79  A    between atoms: _171  and  _172
REMARK   80  A    between atoms: _172  and  _173
REMARK   81  A    between atoms: _176  and  _178
REMARK   82  A    between atoms: _178  and  _179
REMARK   83  A    between atoms: _178  and  _181
REMARK   84  A    between atoms: _184  and  _186
REMARK   85  A    between atoms: _186  and  _187
REMARK   86  A    between atoms: _186  and  _189
REMARK   87  A    between atoms: _189  and  _190
REMARK   88  A    between atoms: _193  and  _195
REMARK   89  A    between atoms: _195  and  _196
REMARK   90  A    between atoms: _195  and  _198
REMARK   91  A    between atoms: _198  and  _199
REMARK   92  A    between atoms: _199  and  _200
REMARK   93  A    between atoms: _202  and  _204
REMARK   94  A    between atoms: _204  and  _205
REMARK   95  A    between atoms: _204  and  _207
REMARK   96  A    between atoms: _207  and  _208
REMARK   97  A    between atoms: _208  and  _209
REMARK   98  A    between atoms: _209  and  _210
REMARK   99  A    between atoms: _219  and  _221
REMARK  100  A    between atoms: _221  and  _222
REMARK  101  A    between atoms: _221  and  _224
REMARK  102  A    between atoms: _224  and  _225
REMARK  103  A    between atoms: _230  and  _231
REMARK  104  A    between atoms: _233  and  _235
REMARK  105  A    between atoms: _235  and  _236
REMARK  106  A    between atoms: _235  and  _238
REMARK  107  A    between atoms: _241  and  _243
REMARK  108  A    between atoms: _243  and  _244
REMARK  109  A    between atoms: _243  and  _246
REMARK  110  A    between atoms: _249  and  _251
REMARK  111  A    between atoms: _251  and  _252
REMARK  112  A    between atoms: _251  and  _254
REMARK  113  A    between atoms: _254  and  _255
REMARK  114  A    between atoms: _255  and  _256
REMARK  115  A    between atoms: _259  and  _261
REMARK  116  A    between atoms: _261  and  _262
REMARK  117  A    between atoms: _261  and  _264
REMARK  118  A    between atoms: _264  and  _265
REMARK  119  A    between atoms: _265  and  _266
REMARK  120  A    between atoms: _268  and  _270
REMARK  121  A    between atoms: _270  and  _271
REMARK  122  A    between atoms: _270  and  _273
REMARK  123  A    between atoms: _273  and  _274
REMARK  124  A    between atoms: _279  and  _280
REMARK  125  A    between atoms: _282  and  _284
REMARK  126  A    between atoms: _284  and  _285
REMARK  127  A    between atoms: _284  and  _287
REMARK  128  A    between atoms: _287  and  _288
REMARK  129  A    between atoms: _293  and  _295
REMARK  130  A    between atoms: _295  and  _296
REMARK  131  A    between atoms: _295  and  _298
REMARK  132  A    between atoms: _301  and  _303
REMARK  133  A    between atoms: _303  and  _304
REMARK  134  A    between atoms: _303  and  _306
REMARK  135  A    between atoms: _309  and  _311
REMARK  136  A    between atoms: _311  and  _312
REMARK  137  A    between atoms: _311  and  _314
REMARK  138  A    between atoms: _314  and  _315
REMARK  139  A    between atoms: _315  and  _316
REMARK  140  A    between atoms: _318  and  _320
REMARK  141  A    between atoms: _320  and  _321
REMARK  142  A    between atoms: _320  and  _323
REMARK  143  A    between atoms: _323  and  _324
REMARK  144  A    between atoms: _324  and  _325
REMARK  145  A    between atoms: _328  and  _330
REMARK  146  A    between atoms: _330  and  _331
REMARK  147  A    between atoms: _330  and  _333
REMARK  148  A    between atoms: _333  and  _334
REMARK  149  A    between atoms: _340  and  _342
REMARK  150  A    between atoms: _342  and  _343
REMARK  151  A    between atoms: _342  and  _345
REMARK  152  A    between atoms: _345  and  _346
REMARK  153  A    between atoms: _349  and  _351
REMARK  154  A    between atoms: _351  and  _352
REMARK  155  A    between atoms: _351  and  _354
REMARK  156  A    between atoms: _354  and  _355
REMARK  157  A    between atoms: _355  and  _356
REMARK  158  A    between atoms: _359  and  _361
REMARK  159  A    between atoms: _361  and  _362
REMARK  160  A    between atoms: _364  and  _366
REMARK  161  A    between atoms: _366  and  _367
REMARK  162  A    between atoms: _369  and  _371
REMARK  163  A    between atoms: _371  and  _372
REMARK  164  A    between atoms: _375  and  _377
REMARK  165  A    between atoms: _377  and  _378
REMARK  166  A    between atoms: _377  and  _380
REMARK  167  A    between atoms: _380  and  _381
REMARK  168  A    between atoms: _386  and  _388
REMARK  169  A    between atoms: _388  and  _389
REMARK  170  A    between atoms: _388  and  _391
REMARK  171  A    between atoms: _391  and  _392
REMARK  172  A    between atoms: _395  and  _397
REMARK  173  A    between atoms: _397  and  _398
REMARK  174  A    between atoms: _397  and  _400
REMARK  175  A    between atoms: _400  and  _401
REMARK  176  A    between atoms: _403  and  _405
REMARK  177  A    between atoms: _405  and  _406
REMARK  178  A    between atoms: _405  and  _408
REMARK  179  A    between atoms: _408  and  _409
REMARK  180  A    between atoms: _412  and  _414
REMARK  181  A    between atoms: _414  and  _415
REMARK  182  A    between atoms: _414  and  _417
REMARK  183  A    between atoms: _417  and  _418
REMARK  184  A    between atoms: _421  and  _423
REMARK  185  A    between atoms: _423  and  _424
REMARK  186  A    between atoms: _423  and  _426
REMARK  187  A    between atoms: _426  and  _427
REMARK  188  A    between atoms: _430  and  _432
REMARK  189  A    between atoms: _432  and  _433
REMARK  190  A    between atoms: _432  and  _435
REMARK  191  A    between atoms: _435  and  _436
REMARK  192  A    between atoms: _439  and  _441
REMARK  193  A    between atoms: _441  and  _442
REMARK  194  A    between atoms: _441  and  _444
REMARK  195  A    between atoms: _444  and  _445
REMARK  196  A    between atoms: _447  and  _449
REMARK  197  A    between atoms: _449  and  _450
REMARK  198  A    between atoms: _449  and  _452
REMARK  199  A    between atoms: _452  and  _453
REMARK  200  A    between atoms: _456  and  _458
REMARK  201  A    between atoms: _458  and  _459
REMARK  202  A    between atoms: _458  and  _461
REMARK  203  A    between atoms: _461  and  _462
REMARK  204  A    between atoms: _468  and  _470
REMARK  205  A    between atoms: _470  and  _471
REMARK  206  A    between atoms: _473  and  _475
REMARK  207  A    between atoms: _475  and  _476
REMARK  208  A    between atoms: _475  and  _478
REMARK  209  A    between atoms: _478  and  _479
REMARK  210  A    between atoms: _485  and  _487
REMARK  211  A    between atoms: _487  and  _488
REMARK  212  A    between atoms: _487  and  _490
REMARK                            x       y       z     vdW  Elec       q    Type
REMARK                         _______ _______ _______ _____ _____    ______ ____
ROOT
ATOM      1  O   HOH     1     -20.012  -2.838   9.727  0.00  0.00    +0.000 OA
ENDROOT
TORSDOF 0
REMARK  Name = ../refined-set-2016/4o0x/4o0x_pocket.pdb
REMARK  212 active torsions:
REMARK  status: ('A' for Active; 'I' for Inactive)
REMARK    1  A    between atoms: _1  and  _3
REMARK    2  A    between atoms: _3  and  _4
REMARK    3  A    between atoms: _3  and  _6
REMARK    4  A    between atoms: _6  and  _7
REMARK    5  A    between atoms: _7  and  _8
REMARK    6  A    between atoms: _8  and  _9
REMARK    7  A    between atoms: _9  and  _10
REMARK    8  A    between atoms: _14  and  _16
REMARK    9  A    between atoms: _16  and  _17
REMARK   10  A    between atoms: _16  and  _19
REMARK   11  A    between atoms: _19  and  _20
REMARK   12  A    between atoms: _23  and  _25
REMARK   13  A    between atoms: _25  and  _26
REMARK   14  A    between atoms: _28  and  _30
REMARK   15  A    between atoms: _30  and  _31
REMARK   16  A    between atoms: _30  and  _33
REMARK   17  A    between atoms: _33  and  _34
REMARK   18  A    between atoms: _34  and  _35
REMARK   19  A    between atoms: _38  and  _40
REMARK   20  A    between atoms: _40  and  _41
REMARK   21  A    between atoms: _43  and  _45
REMARK   22  A    between atoms: _45  and  _46
REMARK   23  A    between atoms: _45  and  _48
REMARK   24  A    between atoms: _48  and  _49
REMARK   25  A    between atoms: _51  and  _53
REMARK   26  A    between atoms: _53  and  _54
REMARK   27  A    between atoms: _53  and  _56
REMARK   28  A    between atoms: _56  and  _57
REMARK   29  A    between atoms: _60  and  _62
REMARK   30  A    between atoms: _62  and  _63
REMARK   31  A    between atoms: _65  and  _67
REMARK   32  A    between atoms: _67  and  _68
REMARK   33  A    between atoms: _67  and  _70
REMARK   34  A    between atoms: _70  and  _71
REMARK   35  A    between atoms: _74  and  _76
REMARK   36  A    between atoms: _76  and  _77
REMARK   37  A    between atoms: _76  and  _79
REMARK   38  A    between atoms: _82  and  _84
REMARK   39  A    between atoms: _84  and  _85
REMARK   40  A    between atoms: _84  and  _87
REMARK   41  A    between atoms: _89  and  _91
REMARK   42  A    between atoms: _91  and  _92
REMARK   43  A    between atoms: _91  and  _94
REMARK   44  A    between atoms: _94  and  _95
REMARK   45  A    between atoms: _98  and  _100
REMARK   46  A    between atoms: _100  and  _101
REMARK   47  A    between atoms: _100  and  _103
REMARK   48  A    between atoms: _106  and  _108
REMARK   49  A    between atoms: _108  and  _109
REMARK   50  A    between atoms: _112  and  _114
REMARK   51  A    between atoms: _114  and  _115
REMARK   52  A    between atoms: _114  and  _117
REMARK   53  A    between atoms: _120  and  _122
REMARK   54  A    between atoms: _122  and  _123
REMARK   55  A    between atoms: _122  and  _125
REMARK   56  A    between atoms: _125  and  _126
REMARK   57  A    between atoms: _126  and  _127
REMARK   58  A    between atoms: _127  and  _128
REMARK   59  A    between atoms: _128  and  _129
REMARK   60  A    between atoms: _133  and  _135
REMARK   61  A    between atoms: _135  and  _136
REMARK   62  A    between atoms: _135  and  _138
REMARK   63  A    between atoms: _138  and  _139
REMARK   64  A    between atoms: _139  and  _140
REMARK   65  A    between atoms: _140  and  _141
REMARK   66  A    between atoms: _141  and  _142
REMARK   67  A    between atoms: _146  and  _148
REMARK   68  A    between atoms: _148  and  _149
REMARK   69  A    between atoms: _148  and  _151
REMARK   70  A    between atoms: _151  and  _152
REMARK   71  A    between atoms: _152  and  _153
REMARK   72  A    between atoms: _155  and  _157
REMARK   73  A    between atoms: _157  and  _158
REMARK   74  A    between atoms: _157  and  _160
REMARK   75  A    between atoms: _160  and  _161
REMARK   76  A    between atoms: _166  and  _168
REMARK   77  A    between atoms: _168  and  _169
REMARK   78  A    between atoms: _168  and  _171
REMARK   79  A    between atoms: _171  and  _172
REMARK   80  A    between atoms: _172  and  _173
REMARK   81  A    between atoms: _176  and  _178
REMARK   82  A    between atoms: _178  and  _179
REMARK   83  A    between atoms: _178  and  _181
REMARK   84  A    between atoms: _184  and  _186
REMARK   85  A    between atoms: _186  and  _187
REMARK   86  A    between atoms: _186  and  _189
REMARK   87  A    between atoms: _189  and  _190
REMARK   88  A    between atoms: _193  and  _195
REMARK   89  A    between atoms: _195  and  _196
REMARK   90  A    between atoms: _195  and  _198
REMARK   91  A    between atoms: _198  and  _199
REMARK   92  A    between atoms: _199  and  _200
REMARK   93  A    between atoms: _202  and  _204
REMARK   94  A    between atoms: _204  and  _205
REMARK   95  A    between atoms: _204  and  _207
REMARK   96  A    between atoms: _207  and  _208
REMARK   97  A    between atoms: _208  and  _209
REMARK   98  A    between atoms: _209  and  _210
REMARK   99  A    between atoms: _219  and  _221
REMARK  100  A    between atoms: _221  and  _222
REMARK  101  A    between atoms: _221  and  _224
REMARK  102  A    between atoms: _224  and  _225
REMARK  103  A    between atoms: _230  and  _231
REMARK  104  A    between atoms: _233  and  _235
REMARK  105  A    between atoms: _235  and  _236
REMARK  106  A    between atoms: _235  and  _238
REMARK  107  A    between atoms: _241  and  _243
REMARK  108  A    between atoms: _243  and  _244
REMARK  109  A    between atoms: _243  and  _246
REMARK  110  A    between atoms: _249  and  _251
REMARK  111  A    between atoms: _251  and  _252
REMARK  112  A    between atoms: _251  and  _254
REMARK  113  A    between atoms: _254  and  _255
REMARK  114  A    between atoms: _255  and  _256
REMARK  115  A    between atoms: _259  and  _261
REMARK  116  A    between atoms: _261  and  _262
REMARK  117  A    between atoms: _261  and  _264
REMARK  118  A    between atoms: _264  and  _265
REMARK  119  A    between atoms: _265  and  _266
REMARK  120  A    between atoms: _268  and  _270
REMARK  121  A    between atoms: _270  and  _271
REMARK  122  A    between atoms: _270  and  _273
REMARK  123  A    between atoms: _273  and  _274
REMARK  124  A    between atoms: _279  and  _280
REMARK  125  A    between atoms: _282  and  _284
REMARK  126  A    between atoms: _284  and  _285
REMARK  127  A    between atoms: _284  and  _287
REMARK  128  A    between atoms: _287  and  _288
REMARK  129  A    between atoms: _293  and  _295
REMARK  130  A    between atoms: _295  and  _296
REMARK  131  A    between atoms: _295  and  _298
REMARK  132  A    between atoms: _301  and  _303
REMARK  133  A    between atoms: _303  and  _304
REMARK  134  A    between atoms: _303  and  _306
REMARK  135  A    between atoms: _309  and  _311
REMARK  136  A    between atoms: _311  and  _312
REMARK  137  A    between atoms: _311  and  _314
REMARK  138  A    between atoms: _314  and  _315
REMARK  139  A    between atoms: _315  and  _316
REMARK  140  A    between atoms: _318  and  _320
REMARK  141  A    between atoms: _320  and  _321
REMARK  142  A    between atoms: _320  and  _323
REMARK  143  A    between atoms: _323  and  _324
REMARK  144  A    between atoms: _324  and  _325
REMARK  145  A    between atoms: _328  and  _330
REMARK  146  A    between atoms: _330  and  _331
REMARK  147  A    between atoms: _330  and  _333
REMARK  148  A    between atoms: _333  and  _334
REMARK  149  A    between atoms: _340  and  _342
REMARK  150  A    between atoms: _342  and  _343
REMARK  151  A    between atoms: _342  and  _345
REMARK  152  A    between atoms: _345  and  _346
REMARK  153  A    between atoms: _349  and  _351
REMARK  154  A    between atoms: _351  and  _352
REMARK  155  A    between atoms: _351  and  _354
REMARK  156  A    between atoms: _354  and  _355
REMARK  157  A    between atoms: _355  and  _356
REMARK  158  A    between atoms: _359  and  _361
REMARK  159  A    between atoms: _361  and  _362
REMARK  160  A    between atoms: _364  and  _366
REMARK  161  A    between atoms: _366  and  _367
REMARK  162  A    between atoms: _369  and  _371
REMARK  163  A    between atoms: _371  and  _372
REMARK  164  A    between atoms: _375  and  _377
REMARK  165  A    between atoms: _377  and  _378
REMARK  166  A    between atoms: _377  and  _380
REMARK  167  A    between atoms: _380  and  _381
REMARK  168  A    between atoms: _386  and  _388
REMARK  169  A    between atoms: _388  and  _389
REMARK  170  A    between atoms: _388  and  _391
REMARK  171  A    between atoms: _391  and  _392
REMARK  172  A    between atoms: _395  and  _397
REMARK  173  A    between atoms: _397  and  _398
REMARK  174  A    between atoms: _397  and  _400
REMARK  175  A    between atoms: _400  and  _401
REMARK  176  A    between atoms: _403  and  _405
REMARK  177  A    between atoms: _405  and  _406
REMARK  178  A    between atoms: _405  and  _408
REMARK  179  A    between atoms: _408  and  _409
REMARK  180  A    between atoms: _412  and  _414
REMARK  181  A    between atoms: _414  and  _415
REMARK  182  A    between atoms: _414  and  _417
REMARK  183  A    between atoms: _417  and  _418
REMARK  184  A    between atoms: _421  and  _423
REMARK  185  A    between atoms: _423  and  _424
REMARK  186  A    between atoms: _423  and  _426
REMARK  187  A    between atoms: _426  and  _427
REMARK  188  A    between atoms: _430  and  _432
REMARK  189  A    between atoms: _432  and  _433
REMARK  190  A    between atoms: _432  and  _435
REMARK  191  A    between atoms: _435  and  _436
REMARK  192  A    between atoms: _439  and  _441
REMARK  193  A    between atoms: _441  and  _442
REMARK  194  A    between atoms: _441  and  _444
REMARK  195  A    between atoms: _444  and  _445
REMARK  196  A    between atoms: _447  and  _449
REMARK  197  A    between atoms: _449  and  _450
REMARK  198  A    between atoms: _449  and  _452
REMARK  199  A    between atoms: _452  and  _453
REMARK  200  A    between atoms: _456  and  _458
REMARK  201  A    between atoms: _458  and  _459
REMARK  202  A    between atoms: _458  and  _461
REMARK  203  A    between atoms: _461  and  _462
REMARK  204  A    between atoms: _468  and  _470
REMARK  205  A    between atoms: _470  and  _471
REMARK  206  A    between atoms: _473  and  _475
REMARK  207  A    between atoms: _475  and  _476
REMARK  208  A    between atoms: _475  and  _478
REMARK  209  A    between atoms: _478  and  _479
REMARK  210  A    between atoms: _485  and  _487
REMARK  211  A    between atoms: _487  and  _488
REMARK  212  A    between atoms: _487  and  _490
REMARK                            x       y       z     vdW  Elec       q    Type
REMARK                         _______ _______ _______ _____ _____    ______ ____
ROOT
ATOM      1  O   HOH     1     -16.804   2.054   7.040  0.00  0.00    +0.000 OA
ENDROOT
TORSDOF 0
REMARK  Name = ../refined-set-2016/4o0x/4o0x_pocket.pdb
REMARK  212 active torsions:
REMARK  status: ('A' for Active; 'I' for Inactive)
REMARK    1  A    between atoms: _1  and  _3
REMARK    2  A    between atoms: _3  and  _4
REMARK    3  A    between atoms: _3  and  _6
REMARK    4  A    between atoms: _6  and  _7
REMARK    5  A    between atoms: _7  and  _8
REMARK    6  A    between atoms: _8  and  _9
REMARK    7  A    between atoms: _9  and  _10
REMARK    8  A    between atoms: _14  and  _16
REMARK    9  A    between atoms: _16  and  _17
REMARK   10  A    between atoms: _16  and  _19
REMARK   11  A    between atoms: _19  and  _20
REMARK   12  A    between atoms: _23  and  _25
REMARK   13  A    between atoms: _25  and  _26
REMARK   14  A    between atoms: _28  and  _30
REMARK   15  A    between atoms: _30  and  _31
REMARK   16  A    between atoms: _30  and  _33
REMARK   17  A    between atoms: _33  and  _34
REMARK   18  A    between atoms: _34  and  _35
REMARK   19  A    between atoms: _38  and  _40
REMARK   20  A    between atoms: _40  and  _41
REMARK   21  A    between atoms: _43  and  _45
REMARK   22  A    between atoms: _45  and  _46
REMARK   23  A    between atoms: _45  and  _48
REMARK   24  A    between atoms: _48  and  _49
REMARK   25  A    between atoms: _51  and  _53
REMARK   26  A    between atoms: _53  and  _54
REMARK   27  A    between atoms: _53  and  _56
REMARK   28  A    between atoms: _56  and  _57
REMARK   29  A    between atoms: _60  and  _62
REMARK   30  A    between atoms: _62  and  _63
REMARK   31  A    between atoms: _65  and  _67
REMARK   32  A    between atoms: _67  and  _68
REMARK   33  A    between atoms: _67  and  _70
REMARK   34  A    between atoms: _70  and  _71
REMARK   35  A    between atoms: _74  and  _76
REMARK   36  A    between atoms: _76  and  _77
REMARK   37  A    between atoms: _76  and  _79
REMARK   38  A    between atoms: _82  and  _84
REMARK   39  A    between atoms: _84  and  _85
REMARK   40  A    between atoms: _84  and  _87
REMARK   41  A    between atoms: _89  and  _91
REMARK   42  A    between atoms: _91  and  _92
REMARK   43  A    between atoms: _91  and  _94
REMARK   44  A    between atoms: _94  and  _95
REMARK   45  A    between atoms: _98  and  _100
REMARK   46  A    between atoms: _100  and  _101
REMARK   47  A    between atoms: _100  and  _103
REMARK   48  A    between atoms: _106  and  _108
REMARK   49  A    between atoms: _108  and  _109
REMARK   50  A    between atoms: _112  and  _114
REMARK   51  A    between atoms: _114  and  _115
REMARK   52  A    between atoms: _114  and  _117
REMARK   53  A    between atoms: _120  and  _122
REMARK   54  A    between atoms: _122  and  _123
REMARK   55  A    between atoms: _122  and  _125
REMARK   56  A    between atoms: _125  and  _126
REMARK   57  A    between atoms: _126  and  _127
REMARK   58  A    between atoms: _127  and  _128
REMARK   59  A    between atoms: _128  and  _129
REMARK   60  A    between atoms: _133  and  _135
REMARK   61  A    between atoms: _135  and  _136
REMARK   62  A    between atoms: _135  and  _138
REMARK   63  A    between atoms: _138  and  _139
REMARK   64  A    between atoms: _139  and  _140
REMARK   65  A    between atoms: _140  and  _141
REMARK   66  A    between atoms: _141  and  _142
REMARK   67  A    between atoms: _146  and  _148
REMARK   68  A    between atoms: _148  and  _149
REMARK   69  A    between atoms: _148  and  _151
REMARK   70  A    between atoms: _151  and  _152
REMARK   71  A    between atoms: _152  and  _153
REMARK   72  A    between atoms: _155  and  _157
REMARK   73  A    between atoms: _157  and  _158
REMARK   74  A    between atoms: _157  and  _160
REMARK   75  A    between atoms: _160  and  _161
REMARK   76  A    between atoms: _166  and  _168
REMARK   77  A    between atoms: _168  and  _169
REMARK   78  A    between atoms: _168  and  _171
REMARK   79  A    between atoms: _171  and  _172
REMARK   80  A    between atoms: _172  and  _173
REMARK   81  A    between atoms: _176  and  _178
REMARK   82  A    between atoms: _178  and  _179
REMARK   83  A    between atoms: _178  and  _181
REMARK   84  A    between atoms: _184  and  _186
REMARK   85  A    between atoms: _186  and  _187
REMARK   86  A    between atoms: _186  and  _189
REMARK   87  A    between atoms: _189  and  _190
REMARK   88  A    between atoms: _193  and  _195
REMARK   89  A    between atoms: _195  and  _196
REMARK   90  A    between atoms: _195  and  _198
REMARK   91  A    between atoms: _198  and  _199
REMARK   92  A    between atoms: _199  and  _200
REMARK   93  A    between atoms: _202  and  _204
REMARK   94  A    between atoms: _204  and  _205
REMARK   95  A    between atoms: _204  and  _207
REMARK   96  A    between atoms: _207  and  _208
REMARK   97  A    between atoms: _208  and  _209
REMARK   98  A    between atoms: _209  and  _210
REMARK   99  A    between atoms: _219  and  _221
REMARK  100  A    between atoms: _221  and  _222
REMARK  101  A    between atoms: _221  and  _224
REMARK  102  A    between atoms: _224  and  _225
REMARK  103  A    between atoms: _230  and  _231
REMARK  104  A    between atoms: _233  and  _235
REMARK  105  A    between atoms: _235  and  _236
REMARK  106  A    between atoms: _235  and  _238
REMARK  107  A    between atoms: _241  and  _243
REMARK  108  A    between atoms: _243  and  _244
REMARK  109  A    between atoms: _243  and  _246
REMARK  110  A    between atoms: _249  and  _251
REMARK  111  A    between atoms: _251  and  _252
REMARK  112  A    between atoms: _251  and  _254
REMARK  113  A    between atoms: _254  and  _255
REMARK  114  A    between atoms: _255  and  _256
REMARK  115  A    between atoms: _259  and  _261
REMARK  116  A    between atoms: _261  and  _262
REMARK  117  A    between atoms: _261  and  _264
REMARK  118  A    between atoms: _264  and  _265
REMARK  119  A    between atoms: _265  and  _266
REMARK  120  A    between atoms: _268  and  _270
REMARK  121  A    between atoms: _270  and  _271
REMARK  122  A    between atoms: _270  and  _273
REMARK  123  A    between atoms: _273  and  _274
REMARK  124  A    between atoms: _279  and  _280
REMARK  125  A    between atoms: _282  and  _284
REMARK  126  A    between atoms: _284  and  _285
REMARK  127  A    between atoms: _284  and  _287
REMARK  128  A    between atoms: _287  and  _288
REMARK  129  A    between atoms: _293  and  _295
REMARK  130  A    between atoms: _295  and  _296
REMARK  131  A    between atoms: _295  and  _298
REMARK  132  A    between atoms: _301  and  _303
REMARK  133  A    between atoms: _303  and  _304
REMARK  134  A    between atoms: _303  and  _306
REMARK  135  A    between atoms: _309  and  _311
REMARK  136  A    between atoms: _311  and  _312
REMARK  137  A    between atoms: _311  and  _314
REMARK  138  A    between atoms: _314  and  _315
REMARK  139  A    between atoms: _315  and  _316
REMARK  140  A    between atoms: _318  and  _320
REMARK  141  A    between atoms: _320  and  _321
REMARK  142  A    between atoms: _320  and  _323
REMARK  143  A    between atoms: _323  and  _324
REMARK  144  A    between atoms: _324  and  _325
REMARK  145  A    between atoms: _328  and  _330
REMARK  146  A    between atoms: _330  and  _331
REMARK  147  A    between atoms: _330  and  _333
REMARK  148  A    between atoms: _333  and  _334
REMARK  149  A    between atoms: _340  and  _342
REMARK  150  A    between atoms: _342  and  _343
REMARK  151  A    between atoms: _342  and  _345
REMARK  152  A    between atoms: _345  and  _346
REMARK  153  A    between atoms: _349  and  _351
REMARK  154  A    between atoms: _351  and  _352
REMARK  155  A    between atoms: _351  and  _354
REMARK  156  A    between atoms: _354  and  _355
REMARK  157  A    between atoms: _355  and  _356
REMARK  158  A    between atoms: _359  and  _361
REMARK  159  A    between atoms: _361  and  _362
REMARK  160  A    between atoms: _364  and  _366
REMARK  161  A    between atoms: _366  and  _367
REMARK  162  A    between atoms: _369  and  _371
REMARK  163  A    between atoms: _371  and  _372
REMARK  164  A    between atoms: _375  and  _377
REMARK  165  A    between atoms: _377  and  _378
REMARK  166  A    between atoms: _377  and  _380
REMARK  167  A    between atoms: _380  and  _381
REMARK  168  A    between atoms: _386  and  _388
REMARK  169  A    between atoms: _388  and  _389
REMARK  170  A    between atoms: _388  and  _391
REMARK  171  A    between atoms: _391  and  _392
REMARK  172  A    between atoms: _395  and  _397
REMARK  173  A    between atoms: _397  and  _398
REMARK  174  A    between atoms: _397  and  _400
REMARK  175  A    between atoms: _400  and  _401
REMARK  176  A    between atoms: _403  and  _405
REMARK  177  A    between atoms: _405  and  _406
REMARK  178  A    between atoms: _405  and  _408
REMARK  179  A    between atoms: _408  and  _409
REMARK  180  A    between atoms: _412  and  _414
REMARK  181  A    between atoms: _414  and  _415
REMARK  182  A    between atoms: _414  and  _417
REMARK  183  A    between atoms: _417  and  _418
REMARK  184  A    between atoms: _421  and  _423
REMARK  185  A    between atoms: _423  and  _424
REMARK  186  A    between atoms: _423  and  _426
REMARK  187  A    between atoms: _426  and  _427
REMARK  188  A    between atoms: _430  and  _432
REMARK  189  A    between atoms: _432  and  _433
REMARK  190  A    between atoms: _432  and  _435
REMARK  191  A    between atoms: _435  and  _436
REMARK  192  A    between atoms: _439  and  _441
REMARK  193  A    between atoms: _441  and  _442
REMARK  194  A    between atoms: _441  and  _444
REMARK  195  A    between atoms: _444  and  _445
REMARK  196  A    between atoms: _447  and  _449
REMARK  197  A    between atoms: _449  and  _450
REMARK  198  A    between atoms: _449  and  _452
REMARK  199  A    between atoms: _452  and  _453
REMARK  200  A    between atoms: _456  and  _458
REMARK  201  A    between atoms: _458  and  _459
REMARK  202  A    between atoms: _458  and  _461
REMARK  203  A    between atoms: _461  and  _462
REMARK  204  A    between atoms: _468  and  _470
REMARK  205  A    between atoms: _470  and  _471
REMARK  206  A    between atoms: _473  and  _475
REMARK  207  A    between atoms: _475  and  _476
REMARK  208  A    between atoms: _475  and  _478
REMARK  209  A    between atoms: _478  and  _479
REMARK  210  A    between atoms: _485  and  _487
REMARK  211  A    between atoms: _487  and  _488
REMARK  212  A    between atoms: _487  and  _490
REMARK                            x       y       z     vdW  Elec       q    Type
REMARK                         _______ _______ _______ _____ _____    ______ ____
ROOT
ATOM      1  O   HOH     1     -22.818 -10.966  14.944  0.00  0.00    +0.000 OA
ENDROOT
TORSDOF 0
REMARK  Name = ../refined-set-2016/4o0x/4o0x_pocket.pdb
REMARK  212 active torsions:
REMARK  status: ('A' for Active; 'I' for Inactive)
REMARK    1  A    between atoms: _1  and  _3
REMARK    2  A    between atoms: _3  and  _4
REMARK    3  A    between atoms: _3  and  _6
REMARK    4  A    between atoms: _6  and  _7
REMARK    5  A    between atoms: _7  and  _8
REMARK    6  A    between atoms: _8  and  _9
REMARK    7  A    between atoms: _9  and  _10
REMARK    8  A    between atoms: _14  and  _16
REMARK    9  A    between atoms: _16  and  _17
REMARK   10  A    between atoms: _16  and  _19
REMARK   11  A    between atoms: _19  and  _20
REMARK   12  A    between atoms: _23  and  _25
REMARK   13  A    between atoms: _25  and  _26
REMARK   14  A    between atoms: _28  and  _30
REMARK   15  A    between atoms: _30  and  _31
REMARK   16  A    between atoms: _30  and  _33
REMARK   17  A    between atoms: _33  and  _34
REMARK   18  A    between atoms: _34  and  _35
REMARK   19  A    between atoms: _38  and  _40
REMARK   20  A    between atoms: _40  and  _41
REMARK   21  A    between atoms: _43  and  _45
REMARK   22  A    between atoms: _45  and  _46
REMARK   23  A    between atoms: _45  and  _48
REMARK   24  A    between atoms: _48  and  _49
REMARK   25  A    between atoms: _51  and  _53
REMARK   26  A    between atoms: _53  and  _54
REMARK   27  A    between atoms: _53  and  _56
REMARK   28  A    between atoms: _56  and  _57
REMARK   29  A    between atoms: _60  and  _62
REMARK   30  A    between atoms: _62  and  _63
REMARK   31  A    between atoms: _65  and  _67
REMARK   32  A    between atoms: _67  and  _68
REMARK   33  A    between atoms: _67  and  _70
REMARK   34  A    between atoms: _70  and  _71
REMARK   35  A    between atoms: _74  and  _76
REMARK   36  A    between atoms: _76  and  _77
REMARK   37  A    between atoms: _76  and  _79
REMARK   38  A    between atoms: _82  and  _84
REMARK   39  A    between atoms: _84  and  _85
REMARK   40  A    between atoms: _84  and  _87
REMARK   41  A    between atoms: _89  and  _91
REMARK   42  A    between atoms: _91  and  _92
REMARK   43  A    between atoms: _91  and  _94
REMARK   44  A    between atoms: _94  and  _95
REMARK   45  A    between atoms: _98  and  _100
REMARK   46  A    between atoms: _100  and  _101
REMARK   47  A    between atoms: _100  and  _103
REMARK   48  A    between atoms: _106  and  _108
REMARK   49  A    between atoms: _108  and  _109
REMARK   50  A    between atoms: _112  and  _114
REMARK   51  A    between atoms: _114  and  _115
REMARK   52  A    between atoms: _114  and  _117
REMARK   53  A    between atoms: _120  and  _122
REMARK   54  A    between atoms: _122  and  _123
REMARK   55  A    between atoms: _122  and  _125
REMARK   56  A    between atoms: _125  and  _126
REMARK   57  A    between atoms: _126  and  _127
REMARK   58  A    between atoms: _127  and  _128
REMARK   59  A    between atoms: _128  and  _129
REMARK   60  A    between atoms: _133  and  _135
REMARK   61  A    between atoms: _135  and  _136
REMARK   62  A    between atoms: _135  and  _138
REMARK   63  A    between atoms: _138  and  _139
REMARK   64  A    between atoms: _139  and  _140
REMARK   65  A    between atoms: _140  and  _141
REMARK   66  A    between atoms: _141  and  _142
REMARK   67  A    between atoms: _146  and  _148
REMARK   68  A    between atoms: _148  and  _149
REMARK   69  A    between atoms: _148  and  _151
REMARK   70  A    between atoms: _151  and  _152
REMARK   71  A    between atoms: _152  and  _153
REMARK   72  A    between atoms: _155  and  _157
REMARK   73  A    between atoms: _157  and  _158
REMARK   74  A    between atoms: _157  and  _160
REMARK   75  A    between atoms: _160  and  _161
REMARK   76  A    between atoms: _166  and  _168
REMARK   77  A    between atoms: _168  and  _169
REMARK   78  A    between atoms: _168  and  _171
REMARK   79  A    between atoms: _171  and  _172
REMARK   80  A    between atoms: _172  and  _173
REMARK   81  A    between atoms: _176  and  _178
REMARK   82  A    between atoms: _178  and  _179
REMARK   83  A    between atoms: _178  and  _181
REMARK   84  A    between atoms: _184  and  _186
REMARK   85  A    between atoms: _186  and  _187
REMARK   86  A    between atoms: _186  and  _189
REMARK   87  A    between atoms: _189  and  _190
REMARK   88  A    between atoms: _193  and  _195
REMARK   89  A    between atoms: _195  and  _196
REMARK   90  A    between atoms: _195  and  _198
REMARK   91  A    between atoms: _198  and  _199
REMARK   92  A    between atoms: _199  and  _200
REMARK   93  A    between atoms: _202  and  _204
REMARK   94  A    between atoms: _204  and  _205
REMARK   95  A    between atoms: _204  and  _207
REMARK   96  A    between atoms: _207  and  _208
REMARK   97  A    between atoms: _208  and  _209
REMARK   98  A    between atoms: _209  and  _210
REMARK   99  A    between atoms: _219  and  _221
REMARK  100  A    between atoms: _221  and  _222
REMARK  101  A    between atoms: _221  and  _224
REMARK  102  A    between atoms: _224  and  _225
REMARK  103  A    between atoms: _230  and  _231
REMARK  104  A    between atoms: _233  and  _235
REMARK  105  A    between atoms: _235  and  _236
REMARK  106  A    between atoms: _235  and  _238
REMARK  107  A    between atoms: _241  and  _243
REMARK  108  A    between atoms: _243  and  _244
REMARK  109  A    between atoms: _243  and  _246
REMARK  110  A    between atoms: _249  and  _251
REMARK  111  A    between atoms: _251  and  _252
REMARK  112  A    between atoms: _251  and  _254
REMARK  113  A    between atoms: _254  and  _255
REMARK  114  A    between atoms: _255  and  _256
REMARK  115  A    between atoms: _259  and  _261
REMARK  116  A    between atoms: _261  and  _262
REMARK  117  A    between atoms: _261  and  _264
REMARK  118  A    between atoms: _264  and  _265
REMARK  119  A    between atoms: _265  and  _266
REMARK  120  A    between atoms: _268  and  _270
REMARK  121  A    between atoms: _270  and  _271
REMARK  122  A    between atoms: _270  and  _273
REMARK  123  A    between atoms: _273  and  _274
REMARK  124  A    between atoms: _279  and  _280
REMARK  125  A    between atoms: _282  and  _284
REMARK  126  A    between atoms: _284  and  _285
REMARK  127  A    between atoms: _284  and  _287
REMARK  128  A    between atoms: _287  and  _288
REMARK  129  A    between atoms: _293  and  _295
REMARK  130  A    between atoms: _295  and  _296
REMARK  131  A    between atoms: _295  and  _298
REMARK  132  A    between atoms: _301  and  _303
REMARK  133  A    between atoms: _303  and  _304
REMARK  134  A    between atoms: _303  and  _306
REMARK  135  A    between atoms: _309  and  _311
REMARK  136  A    between atoms: _311  and  _312
REMARK  137  A    between atoms: _311  and  _314
REMARK  138  A    between atoms: _314  and  _315
REMARK  139  A    between atoms: _315  and  _316
REMARK  140  A    between atoms: _318  and  _320
REMARK  141  A    between atoms: _320  and  _321
REMARK  142  A    between atoms: _320  and  _323
REMARK  143  A    between atoms: _323  and  _324
REMARK  144  A    between atoms: _324  and  _325
REMARK  145  A    between atoms: _328  and  _330
REMARK  146  A    between atoms: _330  and  _331
REMARK  147  A    between atoms: _330  and  _333
REMARK  148  A    between atoms: _333  and  _334
REMARK  149  A    between atoms: _340  and  _342
REMARK  150  A    between atoms: _342  and  _343
REMARK  151  A    between atoms: _342  and  _345
REMARK  152  A    between atoms: _345  and  _346
REMARK  153  A    between atoms: _349  and  _351
REMARK  154  A    between atoms: _351  and  _352
REMARK  155  A    between atoms: _351  and  _354
REMARK  156  A    between atoms: _354  and  _355
REMARK  157  A    between atoms: _355  and  _356
REMARK  158  A    between atoms: _359  and  _361
REMARK  159  A    between atoms: _361  and  _362
REMARK  160  A    between atoms: _364  and  _366
REMARK  161  A    between atoms: _366  and  _367
REMARK  162  A    between atoms: _369  and  _371
REMARK  163  A    between atoms: _371  and  _372
REMARK  164  A    between atoms: _375  and  _377
REMARK  165  A    between atoms: _377  and  _378
REMARK  166  A    between atoms: _377  and  _380
REMARK  167  A    between atoms: _380  and  _381
REMARK  168  A    between atoms: _386  and  _388
REMARK  169  A    between atoms: _388  and  _389
REMARK  170  A    between atoms: _388  and  _391
REMARK  171  A    between atoms: _391  and  _392
REMARK  172  A    between atoms: _395  and  _397
REMARK  173  A    between atoms: _397  and  _398
REMARK  174  A    between atoms: _397  and  _400
REMARK  175  A    between atoms: _400  and  _401
REMARK  176  A    between atoms: _403  and  _405
REMARK  177  A    between atoms: _405  and  _406
REMARK  178  A    between atoms: _405  and  _408
REMARK  179  A    between atoms: _408  and  _409
REMARK  180  A    between atoms: _412  and  _414
REMARK  181  A    between atoms: _414  and  _415
REMARK  182  A    between atoms: _414  and  _417
REMARK  183  A    between atoms: _417  and  _418
REMARK  184  A    between atoms: _421  and  _423
REMARK  185  A    between atoms: _423  and  _424
REMARK  186  A    between atoms: _423  and  _426
REMARK  187  A    between atoms: _426  and  _427
REMARK  188  A    between atoms: _430  and  _432
REMARK  189  A    between atoms: _432  and  _433
REMARK  190  A    between atoms: _432  and  _435
REMARK  191  A    between atoms: _435  and  _436
REMARK  192  A    between atoms: _439  and  _441
REMARK  193  A    between atoms: _441  and  _442
REMARK  194  A    between atoms: _441  and  _444
REMARK  195  A    between atoms: _444  and  _445
REMARK  196  A    between atoms: _447  and  _449
REMARK  197  A    between atoms: _449  and  _450
REMARK  198  A    between atoms: _449  and  _452
REMARK  199  A    between atoms: _452  and  _453
REMARK  200  A    between atoms: _456  and  _458
REMARK  201  A    between atoms: _458  and  _459
REMARK  202  A    between atoms: _458  and  _461
REMARK  203  A    between atoms: _461  and  _462
REMARK  204  A    between atoms: _468  and  _470
REMARK  205  A    between atoms: _470  and  _471
REMARK  206  A    between atoms: _473  and  _475
REMARK  207  A    between atoms: _475  and  _476
REMARK  208  A    between atoms: _475  and  _478
REMARK  209  A    between atoms: _478  and  _479
REMARK  210  A    between atoms: _485  and  _487
REMARK  211  A    between atoms: _487  and  _488
REMARK  212  A    between atoms: _487  and  _490
REMARK                            x       y       z     vdW  Elec       q    Type
REMARK                         _______ _______ _______ _____ _____    ______ ____
ROOT
ATOM      1  O   HOH     1     -17.613  -6.319  10.909  0.00  0.00    +0.000 OA
ENDROOT
TORSDOF 0
REMARK  Name = ../refined-set-2016/4o0x/4o0x_pocket.pdb
REMARK  212 active torsions:
REMARK  status: ('A' for Active; 'I' for Inactive)
REMARK    1  A    between atoms: _1  and  _3
REMARK    2  A    between atoms: _3  and  _4
REMARK    3  A    between atoms: _3  and  _6
REMARK    4  A    between atoms: _6  and  _7
REMARK    5  A    between atoms: _7  and  _8
REMARK    6  A    between atoms: _8  and  _9
REMARK    7  A    between atoms: _9  and  _10
REMARK    8  A    between atoms: _14  and  _16
REMARK    9  A    between atoms: _16  and  _17
REMARK   10  A    between atoms: _16  and  _19
REMARK   11  A    between atoms: _19  and  _20
REMARK   12  A    between atoms: _23  and  _25
REMARK   13  A    between atoms: _25  and  _26
REMARK   14  A    between atoms: _28  and  _30
REMARK   15  A    between atoms: _30  and  _31
REMARK   16  A    between atoms: _30  and  _33
REMARK   17  A    between atoms: _33  and  _34
REMARK   18  A    between atoms: _34  and  _35
REMARK   19  A    between atoms: _38  and  _40
REMARK   20  A    between atoms: _40  and  _41
REMARK   21  A    between atoms: _43  and  _45
REMARK   22  A    between atoms: _45  and  _46
REMARK   23  A    between atoms: _45  and  _48
REMARK   24  A    between atoms: _48  and  _49
REMARK   25  A    between atoms: _51  and  _53
REMARK   26  A    between atoms: _53  and  _54
REMARK   27  A    between atoms: _53  and  _56
REMARK   28  A    between atoms: _56  and  _57
REMARK   29  A    between atoms: _60  and  _62
REMARK   30  A    between atoms: _62  and  _63
REMARK   31  A    between atoms: _65  and  _67
REMARK   32  A    between atoms: _67  and  _68
REMARK   33  A    between atoms: _67  and  _70
REMARK   34  A    between atoms: _70  and  _71
REMARK   35  A    between atoms: _74  and  _76
REMARK   36  A    between atoms: _76  and  _77
REMARK   37  A    between atoms: _76  and  _79
REMARK   38  A    between atoms: _82  and  _84
REMARK   39  A    between atoms: _84  and  _85
REMARK   40  A    between atoms: _84  and  _87
REMARK   41  A    between atoms: _89  and  _91
REMARK   42  A    between atoms: _91  and  _92
REMARK   43  A    between atoms: _91  and  _94
REMARK   44  A    between atoms: _94  and  _95
REMARK   45  A    between atoms: _98  and  _100
REMARK   46  A    between atoms: _100  and  _101
REMARK   47  A    between atoms: _100  and  _103
REMARK   48  A    between atoms: _106  and  _108
REMARK   49  A    between atoms: _108  and  _109
REMARK   50  A    between atoms: _112  and  _114
REMARK   51  A    between atoms: _114  and  _115
REMARK   52  A    between atoms: _114  and  _117
REMARK   53  A    between atoms: _120  and  _122
REMARK   54  A    between atoms: _122  and  _123
REMARK   55  A    between atoms: _122  and  _125
REMARK   56  A    between atoms: _125  and  _126
REMARK   57  A    between atoms: _126  and  _127
REMARK   58  A    between atoms: _127  and  _128
REMARK   59  A    between atoms: _128  and  _129
REMARK   60  A    between atoms: _133  and  _135
REMARK   61  A    between atoms: _135  and  _136
REMARK   62  A    between atoms: _135  and  _138
REMARK   63  A    between atoms: _138  and  _139
REMARK   64  A    between atoms: _139  and  _140
REMARK   65  A    between atoms: _140  and  _141
REMARK   66  A    between atoms: _141  and  _142
REMARK   67  A    between atoms: _146  and  _148
REMARK   68  A    between atoms: _148  and  _149
REMARK   69  A    between atoms: _148  and  _151
REMARK   70  A    between atoms: _151  and  _152
REMARK   71  A    between atoms: _152  and  _153
REMARK   72  A    between atoms: _155  and  _157
REMARK   73  A    between atoms: _157  and  _158
REMARK   74  A    between atoms: _157  and  _160
REMARK   75  A    between atoms: _160  and  _161
REMARK   76  A    between atoms: _166  and  _168
REMARK   77  A    between atoms: _168  and  _169
REMARK   78  A    between atoms: _168  and  _171
REMARK   79  A    between atoms: _171  and  _172
REMARK   80  A    between atoms: _172  and  _173
REMARK   81  A    between atoms: _176  and  _178
REMARK   82  A    between atoms: _178  and  _179
REMARK   83  A    between atoms: _178  and  _181
REMARK   84  A    between atoms: _184  and  _186
REMARK   85  A    between atoms: _186  and  _187
REMARK   86  A    between atoms: _186  and  _189
REMARK   87  A    between atoms: _189  and  _190
REMARK   88  A    between atoms: _193  and  _195
REMARK   89  A    between atoms: _195  and  _196
REMARK   90  A    between atoms: _195  and  _198
REMARK   91  A    between atoms: _198  and  _199
REMARK   92  A    between atoms: _199  and  _200
REMARK   93  A    between atoms: _202  and  _204
REMARK   94  A    between atoms: _204  and  _205
REMARK   95  A    between atoms: _204  and  _207
REMARK   96  A    between atoms: _207  and  _208
REMARK   97  A    between atoms: _208  and  _209
REMARK   98  A    between atoms: _209  and  _210
REMARK   99  A    between atoms: _219  and  _221
REMARK  100  A    between atoms: _221  and  _222
REMARK  101  A    between atoms: _221  and  _224
REMARK  102  A    between atoms: _224  and  _225
REMARK  103  A    between atoms: _230  and  _231
REMARK  104  A    between atoms: _233  and  _235
REMARK  105  A    between atoms: _235  and  _236
REMARK  106  A    between atoms: _235  and  _238
REMARK  107  A    between atoms: _241  and  _243
REMARK  108  A    between atoms: _243  and  _244
REMARK  109  A    between atoms: _243  and  _246
REMARK  110  A    between atoms: _249  and  _251
REMARK  111  A    between atoms: _251  and  _252
REMARK  112  A    between atoms: _251  and  _254
REMARK  113  A    between atoms: _254  and  _255
REMARK  114  A    between atoms: _255  and  _256
REMARK  115  A    between atoms: _259  and  _261
REMARK  116  A    between atoms: _261  and  _262
REMARK  117  A    between atoms: _261  and  _264
REMARK  118  A    between atoms: _264  and  _265
REMARK  119  A    between atoms: _265  and  _266
REMARK  120  A    between atoms: _268  and  _270
REMARK  121  A    between atoms: _270  and  _271
REMARK  122  A    between atoms: _270  and  _273
REMARK  123  A    between atoms: _273  and  _274
REMARK  124  A    between atoms: _279  and  _280
REMARK  125  A    between atoms: _282  and  _284
REMARK  126  A    between atoms: _284  and  _285
REMARK  127  A    between atoms: _284  and  _287
REMARK  128  A    between atoms: _287  and  _288
REMARK  129  A    between atoms: _293  and  _295
REMARK  130  A    between atoms: _295  and  _296
REMARK  131  A    between atoms: _295  and  _298
REMARK  132  A    between atoms: _301  and  _303
REMARK  133  A    between atoms: _303  and  _304
REMARK  134  A    between atoms: _303  and  _306
REMARK  135  A    between atoms: _309  and  _311
REMARK  136  A    between atoms: _311  and  _312
REMARK  137  A    between atoms: _311  and  _314
REMARK  138  A    between atoms: _314  and  _315
REMARK  139  A    between atoms: _315  and  _316
REMARK  140  A    between atoms: _318  and  _320
REMARK  141  A    between atoms: _320  and  _321
REMARK  142  A    between atoms: _320  and  _323
REMARK  143  A    between atoms: _323  and  _324
REMARK  144  A    between atoms: _324  and  _325
REMARK  145  A    between atoms: _328  and  _330
REMARK  146  A    between atoms: _330  and  _331
REMARK  147  A    between atoms: _330  and  _333
REMARK  148  A    between atoms: _333  and  _334
REMARK  149  A    between atoms: _340  and  _342
REMARK  150  A    between atoms: _342  and  _343
REMARK  151  A    between atoms: _342  and  _345
REMARK  152  A    between atoms: _345  and  _346
REMARK  153  A    between atoms: _349  and  _351
REMARK  154  A    between atoms: _351  and  _352
REMARK  155  A    between atoms: _351  and  _354
REMARK  156  A    between atoms: _354  and  _355
REMARK  157  A    between atoms: _355  and  _356
REMARK  158  A    between atoms: _359  and  _361
REMARK  159  A    between atoms: _361  and  _362
REMARK  160  A    between atoms: _364  and  _366
REMARK  161  A    between atoms: _366  and  _367
REMARK  162  A    between atoms: _369  and  _371
REMARK  163  A    between atoms: _371  and  _372
REMARK  164  A    between atoms: _375  and  _377
REMARK  165  A    between atoms: _377  and  _378
REMARK  166  A    between atoms: _377  and  _380
REMARK  167  A    between atoms: _380  and  _381
REMARK  168  A    between atoms: _386  and  _388
REMARK  169  A    between atoms: _388  and  _389
REMARK  170  A    between atoms: _388  and  _391
REMARK  171  A    between atoms: _391  and  _392
REMARK  172  A    between atoms: _395  and  _397
REMARK  173  A    between atoms: _397  and  _398
REMARK  174  A    between atoms: _397  and  _400
REMARK  175  A    between atoms: _400  and  _401
REMARK  176  A    between atoms: _403  and  _405
REMARK  177  A    between atoms: _405  and  _406
REMARK  178  A    between atoms: _405  and  _408
REMARK  179  A    between atoms: _408  and  _409
REMARK  180  A    between atoms: _412  and  _414
REMARK  181  A    between atoms: _414  and  _415
REMARK  182  A    between atoms: _414  and  _417
REMARK  183  A    between atoms: _417  and  _418
REMARK  184  A    between atoms: _421  and  _423
REMARK  185  A    between atoms: _423  and  _424
REMARK  186  A    between atoms: _423  and  _426
REMARK  187  A    between atoms: _426  and  _427
REMARK  188  A    between atoms: _430  and  _432
REMARK  189  A    between atoms: _432  and  _433
REMARK  190  A    between atoms: _432  and  _435
REMARK  191  A    between atoms: _435  and  _436
REMARK  192  A    between atoms: _439  and  _441
REMARK  193  A    between atoms: _441  and  _442
REMARK  194  A    between atoms: _441  and  _444
REMARK  195  A    between atoms: _444  and  _445
REMARK  196  A    between atoms: _447  and  _449
REMARK  197  A    between atoms: _449  and  _450
REMARK  198  A    between atoms: _449  and  _452
REMARK  199  A    between atoms: _452  and  _453
REMARK  200  A    between atoms: _456  and  _458
REMARK  201  A    between atoms: _458  and  _459
REMARK  202  A    between atoms: _458  and  _461
REMARK  203  A    between atoms: _461  and  _462
REMARK  204  A    between atoms: _468  and  _470
REMARK  205  A    between atoms: _470  and  _471
REMARK  206  A    between atoms: _473  and  _475
REMARK  207  A    between atoms: _475  and  _476
REMARK  208  A    between atoms: _475  and  _478
REMARK  209  A    between atoms: _478  and  _479
REMARK  210  A    between atoms: _485  and  _487
REMARK  211  A    between atoms: _487  and  _488
REMARK  212  A    between atoms: _487  and  _490
REMARK                            x       y       z     vdW  Elec       q    Type
REMARK                         _______ _______ _______ _____ _____    ______ ____
ROOT
ATOM      1  O   HOH     1     -23.539 -12.477  10.764  0.00  0.00    +0.000 OA
ENDROOT
TORSDOF 0
REMARK  Name = ../refined-set-2016/4o0x/4o0x_pocket.pdb
REMARK  212 active torsions:
REMARK  status: ('A' for Active; 'I' for Inactive)
REMARK    1  A    between atoms: _1  and  _3
REMARK    2  A    between atoms: _3  and  _4
REMARK    3  A    between atoms: _3  and  _6
REMARK    4  A    between atoms: _6  and  _7
REMARK    5  A    between atoms: _7  and  _8
REMARK    6  A    between atoms: _8  and  _9
REMARK    7  A    between atoms: _9  and  _10
REMARK    8  A    between atoms: _14  and  _16
REMARK    9  A    between atoms: _16  and  _17
REMARK   10  A    between atoms: _16  and  _19
REMARK   11  A    between atoms: _19  and  _20
REMARK   12  A    between atoms: _23  and  _25
REMARK   13  A    between atoms: _25  and  _26
REMARK   14  A    between atoms: _28  and  _30
REMARK   15  A    between atoms: _30  and  _31
REMARK   16  A    between atoms: _30  and  _33
REMARK   17  A    between atoms: _33  and  _34
REMARK   18  A    between atoms: _34  and  _35
REMARK   19  A    between atoms: _38  and  _40
REMARK   20  A    between atoms: _40  and  _41
REMARK   21  A    between atoms: _43  and  _45
REMARK   22  A    between atoms: _45  and  _46
REMARK   23  A    between atoms: _45  and  _48
REMARK   24  A    between atoms: _48  and  _49
REMARK   25  A    between atoms: _51  and  _53
REMARK   26  A    between atoms: _53  and  _54
REMARK   27  A    between atoms: _53  and  _56
REMARK   28  A    between atoms: _56  and  _57
REMARK   29  A    between atoms: _60  and  _62
REMARK   30  A    between atoms: _62  and  _63
REMARK   31  A    between atoms: _65  and  _67
REMARK   32  A    between atoms: _67  and  _68
REMARK   33  A    between atoms: _67  and  _70
REMARK   34  A    between atoms: _70  and  _71
REMARK   35  A    between atoms: _74  and  _76
REMARK   36  A    between atoms: _76  and  _77
REMARK   37  A    between atoms: _76  and  _79
REMARK   38  A    between atoms: _82  and  _84
REMARK   39  A    between atoms: _84  and  _85
REMARK   40  A    between atoms: _84  and  _87
REMARK   41  A    between atoms: _89  and  _91
REMARK   42  A    between atoms: _91  and  _92
REMARK   43  A    between atoms: _91  and  _94
REMARK   44  A    between atoms: _94  and  _95
REMARK   45  A    between atoms: _98  and  _100
REMARK   46  A    between atoms: _100  and  _101
REMARK   47  A    between atoms: _100  and  _103
REMARK   48  A    between atoms: _106  and  _108
REMARK   49  A    between atoms: _108  and  _109
REMARK   50  A    between atoms: _112  and  _114
REMARK   51  A    between atoms: _114  and  _115
REMARK   52  A    between atoms: _114  and  _117
REMARK   53  A    between atoms: _120  and  _122
REMARK   54  A    between atoms: _122  and  _123
REMARK   55  A    between atoms: _122  and  _125
REMARK   56  A    between atoms: _125  and  _126
REMARK   57  A    between atoms: _126  and  _127
REMARK   58  A    between atoms: _127  and  _128
REMARK   59  A    between atoms: _128  and  _129
REMARK   60  A    between atoms: _133  and  _135
REMARK   61  A    between atoms: _135  and  _136
REMARK   62  A    between atoms: _135  and  _138
REMARK   63  A    between atoms: _138  and  _139
REMARK   64  A    between atoms: _139  and  _140
REMARK   65  A    between atoms: _140  and  _141
REMARK   66  A    between atoms: _141  and  _142
REMARK   67  A    between atoms: _146  and  _148
REMARK   68  A    between atoms: _148  and  _149
REMARK   69  A    between atoms: _148  and  _151
REMARK   70  A    between atoms: _151  and  _152
REMARK   71  A    between atoms: _152  and  _153
REMARK   72  A    between atoms: _155  and  _157
REMARK   73  A    between atoms: _157  and  _158
REMARK   74  A    between atoms: _157  and  _160
REMARK   75  A    between atoms: _160  and  _161
REMARK   76  A    between atoms: _166  and  _168
REMARK   77  A    between atoms: _168  and  _169
REMARK   78  A    between atoms: _168  and  _171
REMARK   79  A    between atoms: _171  and  _172
REMARK   80  A    between atoms: _172  and  _173
REMARK   81  A    between atoms: _176  and  _178
REMARK   82  A    between atoms: _178  and  _179
REMARK   83  A    between atoms: _178  and  _181
REMARK   84  A    between atoms: _184  and  _186
REMARK   85  A    between atoms: _186  and  _187
REMARK   86  A    between atoms: _186  and  _189
REMARK   87  A    between atoms: _189  and  _190
REMARK   88  A    between atoms: _193  and  _195
REMARK   89  A    between atoms: _195  and  _196
REMARK   90  A    between atoms: _195  and  _198
REMARK   91  A    between atoms: _198  and  _199
REMARK   92  A    between atoms: _199  and  _200
REMARK   93  A    between atoms: _202  and  _204
REMARK   94  A    between atoms: _204  and  _205
REMARK   95  A    between atoms: _204  and  _207
REMARK   96  A    between atoms: _207  and  _208
REMARK   97  A    between atoms: _208  and  _209
REMARK   98  A    between atoms: _209  and  _210
REMARK   99  A    between atoms: _219  and  _221
REMARK  100  A    between atoms: _221  and  _222
REMARK  101  A    between atoms: _221  and  _224
REMARK  102  A    between atoms: _224  and  _225
REMARK  103  A    between atoms: _230  and  _231
REMARK  104  A    between atoms: _233  and  _235
REMARK  105  A    between atoms: _235  and  _236
REMARK  106  A    between atoms: _235  and  _238
REMARK  107  A    between atoms: _241  and  _243
REMARK  108  A    between atoms: _243  and  _244
REMARK  109  A    between atoms: _243  and  _246
REMARK  110  A    between atoms: _249  and  _251
REMARK  111  A    between atoms: _251  and  _252
REMARK  112  A    between atoms: _251  and  _254
REMARK  113  A    between atoms: _254  and  _255
REMARK  114  A    between atoms: _255  and  _256
REMARK  115  A    between atoms: _259  and  _261
REMARK  116  A    between atoms: _261  and  _262
REMARK  117  A    between atoms: _261  and  _264
REMARK  118  A    between atoms: _264  and  _265
REMARK  119  A    between atoms: _265  and  _266
REMARK  120  A    between atoms: _268  and  _270
REMARK  121  A    between atoms: _270  and  _271
REMARK  122  A    between atoms: _270  and  _273
REMARK  123  A    between atoms: _273  and  _274
REMARK  124  A    between atoms: _279  and  _280
REMARK  125  A    between atoms: _282  and  _284
REMARK  126  A    between atoms: _284  and  _285
REMARK  127  A    between atoms: _284  and  _287
REMARK  128  A    between atoms: _287  and  _288
REMARK  129  A    between atoms: _293  and  _295
REMARK  130  A    between atoms: _295  and  _296
REMARK  131  A    between atoms: _295  and  _298
REMARK  132  A    between atoms: _301  and  _303
REMARK  133  A    between atoms: _303  and  _304
REMARK  134  A    between atoms: _303  and  _306
REMARK  135  A    between atoms: _309  and  _311
REMARK  136  A    between atoms: _311  and  _312
REMARK  137  A    between atoms: _311  and  _314
REMARK  138  A    between atoms: _314  and  _315
REMARK  139  A    between atoms: _315  and  _316
REMARK  140  A    between atoms: _318  and  _320
REMARK  141  A    between atoms: _320  and  _321
REMARK  142  A    between atoms: _320  and  _323
REMARK  143  A    between atoms: _323  and  _324
REMARK  144  A    between atoms: _324  and  _325
REMARK  145  A    between atoms: _328  and  _330
REMARK  146  A    between atoms: _330  and  _331
REMARK  147  A    between atoms: _330  and  _333
REMARK  148  A    between atoms: _333  and  _334
REMARK  149  A    between atoms: _340  and  _342
REMARK  150  A    between atoms: _342  and  _343
REMARK  151  A    between atoms: _342  and  _345
REMARK  152  A    between atoms: _345  and  _346
REMARK  153  A    between atoms: _349  and  _351
REMARK  154  A    between atoms: _351  and  _352
REMARK  155  A    between atoms: _351  and  _354
REMARK  156  A    between atoms: _354  and  _355
REMARK  157  A    between atoms: _355  and  _356
REMARK  158  A    between atoms: _359  and  _361
REMARK  159  A    between atoms: _361  and  _362
REMARK  160  A    between atoms: _364  and  _366
REMARK  161  A    between atoms: _366  and  _367
REMARK  162  A    between atoms: _369  and  _371
REMARK  163  A    between atoms: _371  and  _372
REMARK  164  A    between atoms: _375  and  _377
REMARK  165  A    between atoms: _377  and  _378
REMARK  166  A    between atoms: _377  and  _380
REMARK  167  A    between atoms: _380  and  _381
REMARK  168  A    between atoms: _386  and  _388
REMARK  169  A    between atoms: _388  and  _389
REMARK  170  A    between atoms: _388  and  _391
REMARK  171  A    between atoms: _391  and  _392
REMARK  172  A    between atoms: _395  and  _397
REMARK  173  A    between atoms: _397  and  _398
REMARK  174  A    between atoms: _397  and  _400
REMARK  175  A    between atoms: _400  and  _401
REMARK  176  A    between atoms: _403  and  _405
REMARK  177  A    between atoms: _405  and  _406
REMARK  178  A    between atoms: _405  and  _408
REMARK  179  A    between atoms: _408  and  _409
REMARK  180  A    between atoms: _412  and  _414
REMARK  181  A    between atoms: _414  and  _415
REMARK  182  A    between atoms: _414  and  _417
REMARK  183  A    between atoms: _417  and  _418
REMARK  184  A    between atoms: _421  and  _423
REMARK  185  A    between atoms: _423  and  _424
REMARK  186  A    between atoms: _423  and  _426
REMARK  187  A    between atoms: _426  and  _427
REMARK  188  A    between atoms: _430  and  _432
REMARK  189  A    between atoms: _432  and  _433
REMARK  190  A    between atoms: _432  and  _435
REMARK  191  A    between atoms: _435  and  _436
REMARK  192  A    between atoms: _439  and  _441
REMARK  193  A    between atoms: _441  and  _442
REMARK  194  A    between atoms: _441  and  _444
REMARK  195  A    between atoms: _444  and  _445
REMARK  196  A    between atoms: _447  and  _449
REMARK  197  A    between atoms: _449  and  _450
REMARK  198  A    between atoms: _449  and  _452
REMARK  199  A    between atoms: _452  and  _453
REMARK  200  A    between atoms: _456  and  _458
REMARK  201  A    between atoms: _458  and  _459
REMARK  202  A    between atoms: _458  and  _461
REMARK  203  A    between atoms: _461  and  _462
REMARK  204  A    between atoms: _468  and  _470
REMARK  205  A    between atoms: _470  and  _471
REMARK  206  A    between atoms: _473  and  _475
REMARK  207  A    between atoms: _475  and  _476
REMARK  208  A    between atoms: _475  and  _478
REMARK  209  A    between atoms: _478  and  _479
REMARK  210  A    between atoms: _485  and  _487
REMARK  211  A    between atoms: _487  and  _488
REMARK  212  A    between atoms: _487  and  _490
REMARK                            x       y       z     vdW  Elec       q    Type
REMARK                         _______ _______ _______ _____ _____    ______ ____
ROOT
ATOM      1  O   HOH     1     -19.383   0.798  10.078  0.00  0.00    +0.000 OA
ENDROOT
TORSDOF 0
REMARK  Name = ../refined-set-2016/4o0x/4o0x_pocket.pdb
REMARK  212 active torsions:
REMARK  status: ('A' for Active; 'I' for Inactive)
REMARK    1  A    between atoms: _1  and  _3
REMARK    2  A    between atoms: _3  and  _4
REMARK    3  A    between atoms: _3  and  _6
REMARK    4  A    between atoms: _6  and  _7
REMARK    5  A    between atoms: _7  and  _8
REMARK    6  A    between atoms: _8  and  _9
REMARK    7  A    between atoms: _9  and  _10
REMARK    8  A    between atoms: _14  and  _16
REMARK    9  A    between atoms: _16  and  _17
REMARK   10  A    between atoms: _16  and  _19
REMARK   11  A    between atoms: _19  and  _20
REMARK   12  A    between atoms: _23  and  _25
REMARK   13  A    between atoms: _25  and  _26
REMARK   14  A    between atoms: _28  and  _30
REMARK   15  A    between atoms: _30  and  _31
REMARK   16  A    between atoms: _30  and  _33
REMARK   17  A    between atoms: _33  and  _34
REMARK   18  A    between atoms: _34  and  _35
REMARK   19  A    between atoms: _38  and  _40
REMARK   20  A    between atoms: _40  and  _41
REMARK   21  A    between atoms: _43  and  _45
REMARK   22  A    between atoms: _45  and  _46
REMARK   23  A    between atoms: _45  and  _48
REMARK   24  A    between atoms: _48  and  _49
REMARK   25  A    between atoms: _51  and  _53
REMARK   26  A    between atoms: _53  and  _54
REMARK   27  A    between atoms: _53  and  _56
REMARK   28  A    between atoms: _56  and  _57
REMARK   29  A    between atoms: _60  and  _62
REMARK   30  A    between atoms: _62  and  _63
REMARK   31  A    between atoms: _65  and  _67
REMARK   32  A    between atoms: _67  and  _68
REMARK   33  A    between atoms: _67  and  _70
REMARK   34  A    between atoms: _70  and  _71
REMARK   35  A    between atoms: _74  and  _76
REMARK   36  A    between atoms: _76  and  _77
REMARK   37  A    between atoms: _76  and  _79
REMARK   38  A    between atoms: _82  and  _84
REMARK   39  A    between atoms: _84  and  _85
REMARK   40  A    between atoms: _84  and  _87
REMARK   41  A    between atoms: _89  and  _91
REMARK   42  A    between atoms: _91  and  _92
REMARK   43  A    between atoms: _91  and  _94
REMARK   44  A    between atoms: _94  and  _95
REMARK   45  A    between atoms: _98  and  _100
REMARK   46  A    between atoms: _100  and  _101
REMARK   47  A    between atoms: _100  and  _103
REMARK   48  A    between atoms: _106  and  _108
REMARK   49  A    between atoms: _108  and  _109
REMARK   50  A    between atoms: _112  and  _114
REMARK   51  A    between atoms: _114  and  _115
REMARK   52  A    between atoms: _114  and  _117
REMARK   53  A    between atoms: _120  and  _122
REMARK   54  A    between atoms: _122  and  _123
REMARK   55  A    between atoms: _122  and  _125
REMARK   56  A    between atoms: _125  and  _126
REMARK   57  A    between atoms: _126  and  _127
REMARK   58  A    between atoms: _127  and  _128
REMARK   59  A    between atoms: _128  and  _129
REMARK   60  A    between atoms: _133  and  _135
REMARK   61  A    between atoms: _135  and  _136
REMARK   62  A    between atoms: _135  and  _138
REMARK   63  A    between atoms: _138  and  _139
REMARK   64  A    between atoms: _139  and  _140
REMARK   65  A    between atoms: _140  and  _141
REMARK   66  A    between atoms: _141  and  _142
REMARK   67  A    between atoms: _146  and  _148
REMARK   68  A    between atoms: _148  and  _149
REMARK   69  A    between atoms: _148  and  _151
REMARK   70  A    between atoms: _151  and  _152
REMARK   71  A    between atoms: _152  and  _153
REMARK   72  A    between atoms: _155  and  _157
REMARK   73  A    between atoms: _157  and  _158
REMARK   74  A    between atoms: _157  and  _160
REMARK   75  A    between atoms: _160  and  _161
REMARK   76  A    between atoms: _166  and  _168
REMARK   77  A    between atoms: _168  and  _169
REMARK   78  A    between atoms: _168  and  _171
REMARK   79  A    between atoms: _171  and  _172
REMARK   80  A    between atoms: _172  and  _173
REMARK   81  A    between atoms: _176  and  _178
REMARK   82  A    between atoms: _178  and  _179
REMARK   83  A    between atoms: _178  and  _181
REMARK   84  A    between atoms: _184  and  _186
REMARK   85  A    between atoms: _186  and  _187
REMARK   86  A    between atoms: _186  and  _189
REMARK   87  A    between atoms: _189  and  _190
REMARK   88  A    between atoms: _193  and  _195
REMARK   89  A    between atoms: _195  and  _196
REMARK   90  A    between atoms: _195  and  _198
REMARK   91  A    between atoms: _198  and  _199
REMARK   92  A    between atoms: _199  and  _200
REMARK   93  A    between atoms: _202  and  _204
REMARK   94  A    between atoms: _204  and  _205
REMARK   95  A    between atoms: _204  and  _207
REMARK   96  A    between atoms: _207  and  _208
REMARK   97  A    between atoms: _208  and  _209
REMARK   98  A    between atoms: _209  and  _210
REMARK   99  A    between atoms: _219  and  _221
REMARK  100  A    between atoms: _221  and  _222
REMARK  101  A    between atoms: _221  and  _224
REMARK  102  A    between atoms: _224  and  _225
REMARK  103  A    between atoms: _230  and  _231
REMARK  104  A    between atoms: _233  and  _235
REMARK  105  A    between atoms: _235  and  _236
REMARK  106  A    between atoms: _235  and  _238
REMARK  107  A    between atoms: _241  and  _243
REMARK  108  A    between atoms: _243  and  _244
REMARK  109  A    between atoms: _243  and  _246
REMARK  110  A    between atoms: _249  and  _251
REMARK  111  A    between atoms: _251  and  _252
REMARK  112  A    between atoms: _251  and  _254
REMARK  113  A    between atoms: _254  and  _255
REMARK  114  A    between atoms: _255  and  _256
REMARK  115  A    between atoms: _259  and  _261
REMARK  116  A    between atoms: _261  and  _262
REMARK  117  A    between atoms: _261  and  _264
REMARK  118  A    between atoms: _264  and  _265
REMARK  119  A    between atoms: _265  and  _266
REMARK  120  A    between atoms: _268  and  _270
REMARK  121  A    between atoms: _270  and  _271
REMARK  122  A    between atoms: _270  and  _273
REMARK  123  A    between atoms: _273  and  _274
REMARK  124  A    between atoms: _279  and  _280
REMARK  125  A    between atoms: _282  and  _284
REMARK  126  A    between atoms: _284  and  _285
REMARK  127  A    between atoms: _284  and  _287
REMARK  128  A    between atoms: _287  and  _288
REMARK  129  A    between atoms: _293  and  _295
REMARK  130  A    between atoms: _295  and  _296
REMARK  131  A    between atoms: _295  and  _298
REMARK  132  A    between atoms: _301  and  _303
REMARK  133  A    between atoms: _303  and  _304
REMARK  134  A    between atoms: _303  and  _306
REMARK  135  A    between atoms: _309  and  _311
REMARK  136  A    between atoms: _311  and  _312
REMARK  137  A    between atoms: _311  and  _314
REMARK  138  A    between atoms: _314  and  _315
REMARK  139  A    between atoms: _315  and  _316
REMARK  140  A    between atoms: _318  and  _320
REMARK  141  A    between atoms: _320  and  _321
REMARK  142  A    between atoms: _320  and  _323
REMARK  143  A    between atoms: _323  and  _324
REMARK  144  A    between atoms: _324  and  _325
REMARK  145  A    between atoms: _328  and  _330
REMARK  146  A    between atoms: _330  and  _331
REMARK  147  A    between atoms: _330  and  _333
REMARK  148  A    between atoms: _333  and  _334
REMARK  149  A    between atoms: _340  and  _342
REMARK  150  A    between atoms: _342  and  _343
REMARK  151  A    between atoms: _342  and  _345
REMARK  152  A    between atoms: _345  and  _346
REMARK  153  A    between atoms: _349  and  _351
REMARK  154  A    between atoms: _351  and  _352
REMARK  155  A    between atoms: _351  and  _354
REMARK  156  A    between atoms: _354  and  _355
REMARK  157  A    between atoms: _355  and  _356
REMARK  158  A    between atoms: _359  and  _361
REMARK  159  A    between atoms: _361  and  _362
REMARK  160  A    between atoms: _364  and  _366
REMARK  161  A    between atoms: _366  and  _367
REMARK  162  A    between atoms: _369  and  _371
REMARK  163  A    between atoms: _371  and  _372
REMARK  164  A    between atoms: _375  and  _377
REMARK  165  A    between atoms: _377  and  _378
REMARK  166  A    between atoms: _377  and  _380
REMARK  167  A    between atoms: _380  and  _381
REMARK  168  A    between atoms: _386  and  _388
REMARK  169  A    between atoms: _388  and  _389
REMARK  170  A    between atoms: _388  and  _391
REMARK  171  A    between atoms: _391  and  _392
REMARK  172  A    between atoms: _395  and  _397
REMARK  173  A    between atoms: _397  and  _398
REMARK  174  A    between atoms: _397  and  _400
REMARK  175  A    between atoms: _400  and  _401
REMARK  176  A    between atoms: _403  and  _405
REMARK  177  A    between atoms: _405  and  _406
REMARK  178  A    between atoms: _405  and  _408
REMARK  179  A    between atoms: _408  and  _409
REMARK  180  A    between atoms: _412  and  _414
REMARK  181  A    between atoms: _414  and  _415
REMARK  182  A    between atoms: _414  and  _417
REMARK  183  A    between atoms: _417  and  _418
REMARK  184  A    between atoms: _421  and  _423
REMARK  185  A    between atoms: _423  and  _424
REMARK  186  A    between atoms: _423  and  _426
REMARK  187  A    between atoms: _426  and  _427
REMARK  188  A    between atoms: _430  and  _432
REMARK  189  A    between atoms: _432  and  _433
REMARK  190  A    between atoms: _432  and  _435
REMARK  191  A    between atoms: _435  and  _436
REMARK  192  A    between atoms: _439  and  _441
REMARK  193  A    between atoms: _441  and  _442
REMARK  194  A    between atoms: _441  and  _444
REMARK  195  A    between atoms: _444  and  _445
REMARK  196  A    between atoms: _447  and  _449
REMARK  197  A    between atoms: _449  and  _450
REMARK  198  A    between atoms: _449  and  _452
REMARK  199  A    between atoms: _452  and  _453
REMARK  200  A    between atoms: _456  and  _458
REMARK  201  A    between atoms: _458  and  _459
REMARK  202  A    between atoms: _458  and  _461
REMARK  203  A    between atoms: _461  and  _462
REMARK  204  A    between atoms: _468  and  _470
REMARK  205  A    between atoms: _470  and  _471
REMARK  206  A    between atoms: _473  and  _475
REMARK  207  A    between atoms: _475  and  _476
REMARK  208  A    between atoms: _475  and  _478
REMARK  209  A    between atoms: _478  and  _479
REMARK  210  A    between atoms: _485  and  _487
REMARK  211  A    between atoms: _487  and  _488
REMARK  212  A    between atoms: _487  and  _490
REMARK                            x       y       z     vdW  Elec       q    Type
REMARK                         _______ _______ _______ _____ _____    ______ ____
ROOT
ATOM      1  O   HOH     1     -15.414   9.566  14.885  0.00  0.00    +0.000 OA
ENDROOT
TORSDOF 0
