REMARK  Name = ../refined-set-2016/4el5/4el5_pocket.pdb
REMARK  248 active torsions:
REMARK  status: ('A' for Active; 'I' for Inactive)
REMARK    1  A    between atoms: _1  and  _3
REMARK    2  A    between atoms: _3  and  _4
REMARK    3  A    between atoms: _3  and  _6
REMARK    4  A    between atoms: _6  and  _7
REMARK    5  A    between atoms: _12  and  _13
REMARK    6  A    between atoms: _15  and  _17
REMARK    7  A    between atoms: _17  and  _18
REMARK    8  A    between atoms: _17  and  _20
REMARK    9  A    between atoms: _20  and  _21
REMARK   10  A    between atoms: _21  and  _22
REMARK   11  A    between atoms: _25  and  _27
REMARK   12  A    between atoms: _27  and  _28
REMARK   13  A    between atoms: _27  and  _30
REMARK   14  A    between atoms: _30  and  _31
REMARK   15  A    between atoms: _36  and  _38
REMARK   16  A    between atoms: _38  and  _39
REMARK   17  A    between atoms: _41  and  _43
REMARK   18  A    between atoms: _43  and  _44
REMARK   19  A    between atoms: _46  and  _48
REMARK   20  A    between atoms: _48  and  _49
REMARK   21  A    between atoms: _48  and  _51
REMARK   22  A    between atoms: _51  and  _52
REMARK   23  A    between atoms: _55  and  _57
REMARK   24  A    between atoms: _57  and  _58
REMARK   25  A    between atoms: _60  and  _62
REMARK   26  A    between atoms: _62  and  _63
REMARK   27  A    between atoms: _62  and  _65
REMARK   28  A    between atoms: _65  and  _66
REMARK   29  A    between atoms: _66  and  _67
REMARK   30  A    between atoms: _67  and  _68
REMARK   31  A    between atoms: _77  and  _79
REMARK   32  A    between atoms: _79  and  _80
REMARK   33  A    between atoms: _79  and  _82
REMARK   34  A    between atoms: _82  and  _83
REMARK   35  A    between atoms: _86  and  _88
REMARK   36  A    between atoms: _88  and  _89
REMARK   37  A    between atoms: _92  and  _94
REMARK   38  A    between atoms: _94  and  _95
REMARK   39  A    between atoms: _94  and  _97
REMARK   40  A    between atoms: _97  and  _98
REMARK   41  A    between atoms: _104  and  _106
REMARK   42  A    between atoms: _106  and  _107
REMARK   43  A    between atoms: _106  and  _109
REMARK   44  A    between atoms: _109  and  _110
REMARK   45  A    between atoms: _115  and  _117
REMARK   46  A    between atoms: _117  and  _118
REMARK   47  A    between atoms: _117  and  _120
REMARK   48  A    between atoms: _120  and  _121
REMARK   49  A    between atoms: _124  and  _126
REMARK   50  A    between atoms: _126  and  _127
REMARK   51  A    between atoms: _126  and  _129
REMARK   52  A    between atoms: _129  and  _130
REMARK   53  A    between atoms: _135  and  _137
REMARK   54  A    between atoms: _137  and  _138
REMARK   55  A    between atoms: _137  and  _140
REMARK   56  A    between atoms: _140  and  _141
REMARK   57  A    between atoms: _147  and  _149
REMARK   58  A    between atoms: _149  and  _150
REMARK   59  A    between atoms: _149  and  _152
REMARK   60  A    between atoms: _152  and  _153
REMARK   61  A    between atoms: _159  and  _161
REMARK   62  A    between atoms: _161  and  _162
REMARK   63  A    between atoms: _161  and  _164
REMARK   64  A    between atoms: _164  and  _165
REMARK   65  A    between atoms: _165  and  _166
REMARK   66  A    between atoms: _166  and  _167
REMARK   67  A    between atoms: _176  and  _178
REMARK   68  A    between atoms: _178  and  _179
REMARK   69  A    between atoms: _178  and  _181
REMARK   70  A    between atoms: _181  and  _182
REMARK   71  A    between atoms: _187  and  _189
REMARK   72  A    between atoms: _189  and  _190
REMARK   73  A    between atoms: _189  and  _192
REMARK   74  A    between atoms: _192  and  _193
REMARK   75  A    between atoms: _196  and  _198
REMARK   76  A    between atoms: _198  and  _199
REMARK   77  A    between atoms: _198  and  _201
REMARK   78  A    between atoms: _201  and  _202
REMARK   79  A    between atoms: _205  and  _207
REMARK   80  A    between atoms: _207  and  _208
REMARK   81  A    between atoms: _207  and  _210
REMARK   82  A    between atoms: _210  and  _211
REMARK   83  A    between atoms: _216  and  _218
REMARK   84  A    between atoms: _218  and  _219
REMARK   85  A    between atoms: _218  and  _221
REMARK   86  A    between atoms: _221  and  _222
REMARK   87  A    between atoms: _227  and  _228
REMARK   88  A    between atoms: _230  and  _232
REMARK   89  A    between atoms: _232  and  _233
REMARK   90  A    between atoms: _232  and  _235
REMARK   91  A    between atoms: _235  and  _236
REMARK   92  A    between atoms: _239  and  _241
REMARK   93  A    between atoms: _241  and  _242
REMARK   94  A    between atoms: _241  and  _244
REMARK   95  A    between atoms: _244  and  _245
REMARK   96  A    between atoms: _250  and  _252
REMARK   97  A    between atoms: _252  and  _253
REMARK   98  A    between atoms: _252  and  _255
REMARK   99  A    between atoms: _255  and  _256
REMARK  100  A    between atoms: _261  and  _263
REMARK  101  A    between atoms: _263  and  _264
REMARK  102  A    between atoms: _263  and  _266
REMARK  103  A    between atoms: _266  and  _267
REMARK  104  A    between atoms: _270  and  _272
REMARK  105  A    between atoms: _272  and  _273
REMARK  106  A    between atoms: _272  and  _275
REMARK  107  A    between atoms: _278  and  _280
REMARK  108  A    between atoms: _280  and  _281
REMARK  109  A    between atoms: _280  and  _283
REMARK  110  A    between atoms: _283  and  _284
REMARK  111  A    between atoms: _287  and  _289
REMARK  112  A    between atoms: _289  and  _290
REMARK  113  A    between atoms: _289  and  _292
REMARK  114  A    between atoms: _292  and  _293
REMARK  115  A    between atoms: _293  and  _294
REMARK  116  A    between atoms: _297  and  _299
REMARK  117  A    between atoms: _299  and  _300
REMARK  118  A    between atoms: _303  and  _305
REMARK  119  A    between atoms: _305  and  _306
REMARK  120  A    between atoms: _305  and  _308
REMARK  121  A    between atoms: _308  and  _309
REMARK  122  A    between atoms: _312  and  _314
REMARK  123  A    between atoms: _314  and  _315
REMARK  124  A    between atoms: _314  and  _317
REMARK  125  A    between atoms: _317  and  _318
REMARK  126  A    between atoms: _318  and  _319
REMARK  127  A    between atoms: _322  and  _324
REMARK  128  A    between atoms: _324  and  _325
REMARK  129  A    between atoms: _324  and  _327
REMARK  130  A    between atoms: _327  and  _328
REMARK  131  A    between atoms: _333  and  _335
REMARK  132  A    between atoms: _335  and  _336
REMARK  133  A    between atoms: _338  and  _340
REMARK  134  A    between atoms: _340  and  _341
REMARK  135  A    between atoms: _340  and  _343
REMARK  136  A    between atoms: _346  and  _348
REMARK  137  A    between atoms: _348  and  _349
REMARK  138  A    between atoms: _352  and  _354
REMARK  139  A    between atoms: _354  and  _355
REMARK  140  A    between atoms: _354  and  _357
REMARK  141  A    between atoms: _357  and  _358
REMARK  142  A    between atoms: _363  and  _365
REMARK  143  A    between atoms: _365  and  _366
REMARK  144  A    between atoms: _365  and  _368
REMARK  145  A    between atoms: _368  and  _369
REMARK  146  A    between atoms: _369  and  _370
REMARK  147  A    between atoms: _370  and  _371
REMARK  148  A    between atoms: _371  and  _372
REMARK  149  A    between atoms: _376  and  _378
REMARK  150  A    between atoms: _378  and  _379
REMARK  151  A    between atoms: _378  and  _381
REMARK  152  A    between atoms: _381  and  _382
REMARK  153  A    between atoms: _385  and  _387
REMARK  154  A    between atoms: _387  and  _388
REMARK  155  A    between atoms: _387  and  _390
REMARK  156  A    between atoms: _390  and  _391
REMARK  157  A    between atoms: _396  and  _398
REMARK  158  A    between atoms: _398  and  _399
REMARK  159  A    between atoms: _401  and  _403
REMARK  160  A    between atoms: _403  and  _404
REMARK  161  A    between atoms: _403  and  _406
REMARK  162  A    between atoms: _406  and  _407
REMARK  163  A    between atoms: _407  and  _408
REMARK  164  A    between atoms: _408  and  _409
REMARK  165  A    between atoms: _409  and  _410
REMARK  166  A    between atoms: _414  and  _416
REMARK  167  A    between atoms: _416  and  _417
REMARK  168  A    between atoms: _416  and  _419
REMARK  169  A    between atoms: _419  and  _420
REMARK  170  A    between atoms: _420  and  _421
REMARK  171  A    between atoms: _421  and  _422
REMARK  172  A    between atoms: _431  and  _433
REMARK  173  A    between atoms: _433  and  _434
REMARK  174  A    between atoms: _433  and  _436
REMARK  175  A    between atoms: _436  and  _437
REMARK  176  A    between atoms: _442  and  _444
REMARK  177  A    between atoms: _444  and  _445
REMARK  178  A    between atoms: _444  and  _447
REMARK  179  A    between atoms: _447  and  _448
REMARK  180  A    between atoms: _453  and  _454
REMARK  181  A    between atoms: _456  and  _458
REMARK  182  A    between atoms: _458  and  _459
REMARK  183  A    between atoms: _458  and  _461
REMARK  184  A    between atoms: _461  and  _462
REMARK  185  A    between atoms: _462  and  _463
REMARK  186  A    between atoms: _463  and  _464
REMARK  187  A    between atoms: _464  and  _465
REMARK  188  A    between atoms: _469  and  _471
REMARK  189  A    between atoms: _471  and  _472
REMARK  190  A    between atoms: _471  and  _474
REMARK  191  A    between atoms: _474  and  _475
REMARK  192  A    between atoms: _477  and  _479
REMARK  193  A    between atoms: _479  and  _480
REMARK  194  A    between atoms: _479  and  _482
REMARK  195  A    between atoms: _482  and  _483
REMARK  196  A    between atoms: _486  and  _488
REMARK  197  A    between atoms: _488  and  _489
REMARK  198  A    between atoms: _488  and  _491
REMARK  199  A    between atoms: _491  and  _492
REMARK  200  A    between atoms: _492  and  _493
REMARK  201  A    between atoms: _496  and  _498
REMARK  202  A    between atoms: _498  and  _499
REMARK  203  A    between atoms: _502  and  _504
REMARK  204  A    between atoms: _504  and  _505
REMARK  205  A    between atoms: _504  and  _507
REMARK  206  A    between atoms: _507  and  _508
REMARK  207  A    between atoms: _510  and  _512
REMARK  208  A    between atoms: _512  and  _513
REMARK  209  A    between atoms: _515  and  _517
REMARK  210  A    between atoms: _517  and  _518
REMARK  211  A    between atoms: _517  and  _520
REMARK  212  A    between atoms: _520  and  _521
REMARK  213  A    between atoms: _524  and  _526
REMARK  214  A    between atoms: _526  and  _527
REMARK  215  A    between atoms: _529  and  _531
REMARK  216  A    between atoms: _531  and  _532
REMARK  217  A    between atoms: _531  and  _534
REMARK  218  A    between atoms: _534  and  _535
REMARK  219  A    between atoms: _540  and  _542
REMARK  220  A    between atoms: _542  and  _543
REMARK  221  A    between atoms: _542  and  _545
REMARK  222  A    between atoms: _545  and  _546
REMARK  223  A    between atoms: _546  and  _547
REMARK  224  A    between atoms: _554  and  _555
REMARK  225  A    between atoms: _555  and  _571
REMARK  226  A    between atoms: _556  and  _558
REMARK  227  A    between atoms: _558  and  _559
REMARK  228  A    between atoms: _559  and  _560
REMARK  229  A    between atoms: _564  and  _566
REMARK  230  A    between atoms: _566  and  _567
REMARK  231  A    between atoms: _566  and  _574
REMARK  232  A    between atoms: _567  and  _568
REMARK  233  A    between atoms: _568  and  _569
REMARK  234  A    between atoms: _569  and  _570
REMARK  235  A    between atoms: _570  and  _571
REMARK  236  A    between atoms: _576  and  _578
REMARK  237  A    between atoms: _578  and  _579
REMARK  238  A    between atoms: _578  and  _581
REMARK  239  A    between atoms: _581  and  _582
REMARK  240  A    between atoms: _585  and  _587
REMARK  241  A    between atoms: _587  and  _588
REMARK  242  A    between atoms: _590  and  _592
REMARK  243  A    between atoms: _592  and  _593
REMARK  244  A    between atoms: _596  and  _598
REMARK  245  A    between atoms: _598  and  _599
REMARK  246  A    between atoms: _598  and  _601
REMARK  247  A    between atoms: _601  and  _602
REMARK  248  A    between atoms: _607  and  _608
REMARK                            x       y       z     vdW  Elec       q    Type
REMARK                         _______ _______ _______ _____ _____    ______ ____
ROOT
ATOM      1  CG  TYR A   1      33.428  11.394  36.465  0.00  0.00    -0.020 A 
ATOM      2  CD2 TYR A   1      32.935  12.672  36.580  0.00  0.00    -0.001 A 
ATOM      3  CE2 TYR A   1      33.029  13.589  35.455  0.00  0.00    +0.036 A 
ATOM      4  CZ  TYR A   1      33.552  13.143  34.263  0.00  0.00    +0.134 A 
ATOM      5  CE1 TYR A   1      34.018  11.846  34.121  0.00  0.00    +0.036 A 
ATOM      6  CD1 TYR A   1      33.959  10.987  35.207  0.00  0.00    -0.001 A 
ENDROOT
BRANCH   4   7
ATOM      7  OH  TYR A   1      33.616  13.989  33.211  0.00  0.00    -0.506 OA
ATOM      8  HH  TYR A   1      34.014  13.520  32.435  0.00  0.00    +0.292 HD
ENDBRANCH   4   7
BRANCH   1   9
ATOM      9  CB  TYR A   1      33.413  10.456  37.622  0.00  0.00    +0.051 C 
BRANCH   9  10
ATOM     10  CA  TYR A   1      34.769  10.415  38.333  0.00  0.00    +0.137 C 
BRANCH  10  11
ATOM     11  N   TYR A   1      34.782   9.292  39.245  0.00  0.00    -0.239 NA
ATOM     12  H   TYR A   1      33.933   9.093  39.812  0.00  0.00    +0.142 HD
ENDBRANCH  10  11
BRANCH  10  13
ATOM     13  C   TYR A   1      35.008  11.693  39.188  0.00  0.00    +0.224 C 
ATOM     14  O   TYR A   1      34.077  12.120  39.909  0.00  0.00    -0.287 OA
ENDBRANCH  10  13
ENDBRANCH   9  10
ENDBRANCH   1   9
TORSDOF 5
REMARK  Name = ../refined-set-2016/4el5/4el5_pocket.pdb
REMARK  248 active torsions:
REMARK  status: ('A' for Active; 'I' for Inactive)
REMARK    1  A    between atoms: _1  and  _3
REMARK    2  A    between atoms: _3  and  _4
REMARK    3  A    between atoms: _3  and  _6
REMARK    4  A    between atoms: _6  and  _7
REMARK    5  A    between atoms: _12  and  _13
REMARK    6  A    between atoms: _15  and  _17
REMARK    7  A    between atoms: _17  and  _18
REMARK    8  A    between atoms: _17  and  _20
REMARK    9  A    between atoms: _20  and  _21
REMARK   10  A    between atoms: _21  and  _22
REMARK   11  A    between atoms: _25  and  _27
REMARK   12  A    between atoms: _27  and  _28
REMARK   13  A    between atoms: _27  and  _30
REMARK   14  A    between atoms: _30  and  _31
REMARK   15  A    between atoms: _36  and  _38
REMARK   16  A    between atoms: _38  and  _39
REMARK   17  A    between atoms: _41  and  _43
REMARK   18  A    between atoms: _43  and  _44
REMARK   19  A    between atoms: _46  and  _48
REMARK   20  A    between atoms: _48  and  _49
REMARK   21  A    between atoms: _48  and  _51
REMARK   22  A    between atoms: _51  and  _52
REMARK   23  A    between atoms: _55  and  _57
REMARK   24  A    between atoms: _57  and  _58
REMARK   25  A    between atoms: _60  and  _62
REMARK   26  A    between atoms: _62  and  _63
REMARK   27  A    between atoms: _62  and  _65
REMARK   28  A    between atoms: _65  and  _66
REMARK   29  A    between atoms: _66  and  _67
REMARK   30  A    between atoms: _67  and  _68
REMARK   31  A    between atoms: _77  and  _79
REMARK   32  A    between atoms: _79  and  _80
REMARK   33  A    between atoms: _79  and  _82
REMARK   34  A    between atoms: _82  and  _83
REMARK   35  A    between atoms: _86  and  _88
REMARK   36  A    between atoms: _88  and  _89
REMARK   37  A    between atoms: _92  and  _94
REMARK   38  A    between atoms: _94  and  _95
REMARK   39  A    between atoms: _94  and  _97
REMARK   40  A    between atoms: _97  and  _98
REMARK   41  A    between atoms: _104  and  _106
REMARK   42  A    between atoms: _106  and  _107
REMARK   43  A    between atoms: _106  and  _109
REMARK   44  A    between atoms: _109  and  _110
REMARK   45  A    between atoms: _115  and  _117
REMARK   46  A    between atoms: _117  and  _118
REMARK   47  A    between atoms: _117  and  _120
REMARK   48  A    between atoms: _120  and  _121
REMARK   49  A    between atoms: _124  and  _126
REMARK   50  A    between atoms: _126  and  _127
REMARK   51  A    between atoms: _126  and  _129
REMARK   52  A    between atoms: _129  and  _130
REMARK   53  A    between atoms: _135  and  _137
REMARK   54  A    between atoms: _137  and  _138
REMARK   55  A    between atoms: _137  and  _140
REMARK   56  A    between atoms: _140  and  _141
REMARK   57  A    between atoms: _147  and  _149
REMARK   58  A    between atoms: _149  and  _150
REMARK   59  A    between atoms: _149  and  _152
REMARK   60  A    between atoms: _152  and  _153
REMARK   61  A    between atoms: _159  and  _161
REMARK   62  A    between atoms: _161  and  _162
REMARK   63  A    between atoms: _161  and  _164
REMARK   64  A    between atoms: _164  and  _165
REMARK   65  A    between atoms: _165  and  _166
REMARK   66  A    between atoms: _166  and  _167
REMARK   67  A    between atoms: _176  and  _178
REMARK   68  A    between atoms: _178  and  _179
REMARK   69  A    between atoms: _178  and  _181
REMARK   70  A    between atoms: _181  and  _182
REMARK   71  A    between atoms: _187  and  _189
REMARK   72  A    between atoms: _189  and  _190
REMARK   73  A    between atoms: _189  and  _192
REMARK   74  A    between atoms: _192  and  _193
REMARK   75  A    between atoms: _196  and  _198
REMARK   76  A    between atoms: _198  and  _199
REMARK   77  A    between atoms: _198  and  _201
REMARK   78  A    between atoms: _201  and  _202
REMARK   79  A    between atoms: _205  and  _207
REMARK   80  A    between atoms: _207  and  _208
REMARK   81  A    between atoms: _207  and  _210
REMARK   82  A    between atoms: _210  and  _211
REMARK   83  A    between atoms: _216  and  _218
REMARK   84  A    between atoms: _218  and  _219
REMARK   85  A    between atoms: _218  and  _221
REMARK   86  A    between atoms: _221  and  _222
REMARK   87  A    between atoms: _227  and  _228
REMARK   88  A    between atoms: _230  and  _232
REMARK   89  A    between atoms: _232  and  _233
REMARK   90  A    between atoms: _232  and  _235
REMARK   91  A    between atoms: _235  and  _236
REMARK   92  A    between atoms: _239  and  _241
REMARK   93  A    between atoms: _241  and  _242
REMARK   94  A    between atoms: _241  and  _244
REMARK   95  A    between atoms: _244  and  _245
REMARK   96  A    between atoms: _250  and  _252
REMARK   97  A    between atoms: _252  and  _253
REMARK   98  A    between atoms: _252  and  _255
REMARK   99  A    between atoms: _255  and  _256
REMARK  100  A    between atoms: _261  and  _263
REMARK  101  A    between atoms: _263  and  _264
REMARK  102  A    between atoms: _263  and  _266
REMARK  103  A    between atoms: _266  and  _267
REMARK  104  A    between atoms: _270  and  _272
REMARK  105  A    between atoms: _272  and  _273
REMARK  106  A    between atoms: _272  and  _275
REMARK  107  A    between atoms: _278  and  _280
REMARK  108  A    between atoms: _280  and  _281
REMARK  109  A    between atoms: _280  and  _283
REMARK  110  A    between atoms: _283  and  _284
REMARK  111  A    between atoms: _287  and  _289
REMARK  112  A    between atoms: _289  and  _290
REMARK  113  A    between atoms: _289  and  _292
REMARK  114  A    between atoms: _292  and  _293
REMARK  115  A    between atoms: _293  and  _294
REMARK  116  A    between atoms: _297  and  _299
REMARK  117  A    between atoms: _299  and  _300
REMARK  118  A    between atoms: _303  and  _305
REMARK  119  A    between atoms: _305  and  _306
REMARK  120  A    between atoms: _305  and  _308
REMARK  121  A    between atoms: _308  and  _309
REMARK  122  A    between atoms: _312  and  _314
REMARK  123  A    between atoms: _314  and  _315
REMARK  124  A    between atoms: _314  and  _317
REMARK  125  A    between atoms: _317  and  _318
REMARK  126  A    between atoms: _318  and  _319
REMARK  127  A    between atoms: _322  and  _324
REMARK  128  A    between atoms: _324  and  _325
REMARK  129  A    between atoms: _324  and  _327
REMARK  130  A    between atoms: _327  and  _328
REMARK  131  A    between atoms: _333  and  _335
REMARK  132  A    between atoms: _335  and  _336
REMARK  133  A    between atoms: _338  and  _340
REMARK  134  A    between atoms: _340  and  _341
REMARK  135  A    between atoms: _340  and  _343
REMARK  136  A    between atoms: _346  and  _348
REMARK  137  A    between atoms: _348  and  _349
REMARK  138  A    between atoms: _352  and  _354
REMARK  139  A    between atoms: _354  and  _355
REMARK  140  A    between atoms: _354  and  _357
REMARK  141  A    between atoms: _357  and  _358
REMARK  142  A    between atoms: _363  and  _365
REMARK  143  A    between atoms: _365  and  _366
REMARK  144  A    between atoms: _365  and  _368
REMARK  145  A    between atoms: _368  and  _369
REMARK  146  A    between atoms: _369  and  _370
REMARK  147  A    between atoms: _370  and  _371
REMARK  148  A    between atoms: _371  and  _372
REMARK  149  A    between atoms: _376  and  _378
REMARK  150  A    between atoms: _378  and  _379
REMARK  151  A    between atoms: _378  and  _381
REMARK  152  A    between atoms: _381  and  _382
REMARK  153  A    between atoms: _385  and  _387
REMARK  154  A    between atoms: _387  and  _388
REMARK  155  A    between atoms: _387  and  _390
REMARK  156  A    between atoms: _390  and  _391
REMARK  157  A    between atoms: _396  and  _398
REMARK  158  A    between atoms: _398  and  _399
REMARK  159  A    between atoms: _401  and  _403
REMARK  160  A    between atoms: _403  and  _404
REMARK  161  A    between atoms: _403  and  _406
REMARK  162  A    between atoms: _406  and  _407
REMARK  163  A    between atoms: _407  and  _408
REMARK  164  A    between atoms: _408  and  _409
REMARK  165  A    between atoms: _409  and  _410
REMARK  166  A    between atoms: _414  and  _416
REMARK  167  A    between atoms: _416  and  _417
REMARK  168  A    between atoms: _416  and  _419
REMARK  169  A    between atoms: _419  and  _420
REMARK  170  A    between atoms: _420  and  _421
REMARK  171  A    between atoms: _421  and  _422
REMARK  172  A    between atoms: _431  and  _433
REMARK  173  A    between atoms: _433  and  _434
REMARK  174  A    between atoms: _433  and  _436
REMARK  175  A    between atoms: _436  and  _437
REMARK  176  A    between atoms: _442  and  _444
REMARK  177  A    between atoms: _444  and  _445
REMARK  178  A    between atoms: _444  and  _447
REMARK  179  A    between atoms: _447  and  _448
REMARK  180  A    between atoms: _453  and  _454
REMARK  181  A    between atoms: _456  and  _458
REMARK  182  A    between atoms: _458  and  _459
REMARK  183  A    between atoms: _458  and  _461
REMARK  184  A    between atoms: _461  and  _462
REMARK  185  A    between atoms: _462  and  _463
REMARK  186  A    between atoms: _463  and  _464
REMARK  187  A    between atoms: _464  and  _465
REMARK  188  A    between atoms: _469  and  _471
REMARK  189  A    between atoms: _471  and  _472
REMARK  190  A    between atoms: _471  and  _474
REMARK  191  A    between atoms: _474  and  _475
REMARK  192  A    between atoms: _477  and  _479
REMARK  193  A    between atoms: _479  and  _480
REMARK  194  A    between atoms: _479  and  _482
REMARK  195  A    between atoms: _482  and  _483
REMARK  196  A    between atoms: _486  and  _488
REMARK  197  A    between atoms: _488  and  _489
REMARK  198  A    between atoms: _488  and  _491
REMARK  199  A    between atoms: _491  and  _492
REMARK  200  A    between atoms: _492  and  _493
REMARK  201  A    between atoms: _496  and  _498
REMARK  202  A    between atoms: _498  and  _499
REMARK  203  A    between atoms: _502  and  _504
REMARK  204  A    between atoms: _504  and  _505
REMARK  205  A    between atoms: _504  and  _507
REMARK  206  A    between atoms: _507  and  _508
REMARK  207  A    between atoms: _510  and  _512
REMARK  208  A    between atoms: _512  and  _513
REMARK  209  A    between atoms: _515  and  _517
REMARK  210  A    between atoms: _517  and  _518
REMARK  211  A    between atoms: _517  and  _520
REMARK  212  A    between atoms: _520  and  _521
REMARK  213  A    between atoms: _524  and  _526
REMARK  214  A    between atoms: _526  and  _527
REMARK  215  A    between atoms: _529  and  _531
REMARK  216  A    between atoms: _531  and  _532
REMARK  217  A    between atoms: _531  and  _534
REMARK  218  A    between atoms: _534  and  _535
REMARK  219  A    between atoms: _540  and  _542
REMARK  220  A    between atoms: _542  and  _543
REMARK  221  A    between atoms: _542  and  _545
REMARK  222  A    between atoms: _545  and  _546
REMARK  223  A    between atoms: _546  and  _547
REMARK  224  A    between atoms: _554  and  _555
REMARK  225  A    between atoms: _555  and  _571
REMARK  226  A    between atoms: _556  and  _558
REMARK  227  A    between atoms: _558  and  _559
REMARK  228  A    between atoms: _559  and  _560
REMARK  229  A    between atoms: _564  and  _566
REMARK  230  A    between atoms: _566  and  _567
REMARK  231  A    between atoms: _566  and  _574
REMARK  232  A    between atoms: _567  and  _568
REMARK  233  A    between atoms: _568  and  _569
REMARK  234  A    between atoms: _569  and  _570
REMARK  235  A    between atoms: _570  and  _571
REMARK  236  A    between atoms: _576  and  _578
REMARK  237  A    between atoms: _578  and  _579
REMARK  238  A    between atoms: _578  and  _581
REMARK  239  A    between atoms: _581  and  _582
REMARK  240  A    between atoms: _585  and  _587
REMARK  241  A    between atoms: _587  and  _588
REMARK  242  A    between atoms: _590  and  _592
REMARK  243  A    between atoms: _592  and  _593
REMARK  244  A    between atoms: _596  and  _598
REMARK  245  A    between atoms: _598  and  _599
REMARK  246  A    between atoms: _598  and  _601
REMARK  247  A    between atoms: _601  and  _602
REMARK  248  A    between atoms: _607  and  _608
REMARK                            x       y       z     vdW  Elec       q    Type
REMARK                         _______ _______ _______ _____ _____    ______ ____
ROOT
ATOM      1  CA  GLU A   1      31.690  20.715  38.976  0.00  0.00    +0.134 C 
ENDROOT
BRANCH   1   2
ATOM      2  N   GLU A   1      33.019  20.232  39.358  0.00  0.00    -0.239 NA
ATOM      3  H   GLU A   1      33.414  19.399  38.876  0.00  0.00    +0.142 HD
ENDBRANCH   1   2
BRANCH   1   4
ATOM      4  C   GLU A   1      30.740  19.546  38.706  0.00  0.00    +0.224 C 
ATOM      5  O   GLU A   1      31.104  18.539  38.024  0.00  0.00    -0.287 OA
ENDBRANCH   1   4
BRANCH   1   6
ATOM      6  CB  GLU A   1      31.762  21.614  37.702  0.00  0.00    +0.037 C 
BRANCH   6   7
ATOM      7  CG  GLU A   1      32.443  22.952  37.870  0.00  0.00    +0.116 C 
BRANCH   7   8
ATOM      8  CD  GLU A   1      32.389  23.816  36.587  0.00  0.00    +0.365 C 
ATOM      9  OE2 GLU A   1      33.287  24.639  36.448  0.00  0.00    -0.246 OA
ATOM     10  OE1 GLU A   1      31.413  23.744  35.779  0.00  0.00    -0.246 OA
ENDBRANCH   7   8
ENDBRANCH   6   7
ENDBRANCH   1   6
TORSDOF 5
REMARK  Name = ../refined-set-2016/4el5/4el5_pocket.pdb
REMARK  248 active torsions:
REMARK  status: ('A' for Active; 'I' for Inactive)
REMARK    1  A    between atoms: _1  and  _3
REMARK    2  A    between atoms: _3  and  _4
REMARK    3  A    between atoms: _3  and  _6
REMARK    4  A    between atoms: _6  and  _7
REMARK    5  A    between atoms: _12  and  _13
REMARK    6  A    between atoms: _15  and  _17
REMARK    7  A    between atoms: _17  and  _18
REMARK    8  A    between atoms: _17  and  _20
REMARK    9  A    between atoms: _20  and  _21
REMARK   10  A    between atoms: _21  and  _22
REMARK   11  A    between atoms: _25  and  _27
REMARK   12  A    between atoms: _27  and  _28
REMARK   13  A    between atoms: _27  and  _30
REMARK   14  A    between atoms: _30  and  _31
REMARK   15  A    between atoms: _36  and  _38
REMARK   16  A    between atoms: _38  and  _39
REMARK   17  A    between atoms: _41  and  _43
REMARK   18  A    between atoms: _43  and  _44
REMARK   19  A    between atoms: _46  and  _48
REMARK   20  A    between atoms: _48  and  _49
REMARK   21  A    between atoms: _48  and  _51
REMARK   22  A    between atoms: _51  and  _52
REMARK   23  A    between atoms: _55  and  _57
REMARK   24  A    between atoms: _57  and  _58
REMARK   25  A    between atoms: _60  and  _62
REMARK   26  A    between atoms: _62  and  _63
REMARK   27  A    between atoms: _62  and  _65
REMARK   28  A    between atoms: _65  and  _66
REMARK   29  A    between atoms: _66  and  _67
REMARK   30  A    between atoms: _67  and  _68
REMARK   31  A    between atoms: _77  and  _79
REMARK   32  A    between atoms: _79  and  _80
REMARK   33  A    between atoms: _79  and  _82
REMARK   34  A    between atoms: _82  and  _83
REMARK   35  A    between atoms: _86  and  _88
REMARK   36  A    between atoms: _88  and  _89
REMARK   37  A    between atoms: _92  and  _94
REMARK   38  A    between atoms: _94  and  _95
REMARK   39  A    between atoms: _94  and  _97
REMARK   40  A    between atoms: _97  and  _98
REMARK   41  A    between atoms: _104  and  _106
REMARK   42  A    between atoms: _106  and  _107
REMARK   43  A    between atoms: _106  and  _109
REMARK   44  A    between atoms: _109  and  _110
REMARK   45  A    between atoms: _115  and  _117
REMARK   46  A    between atoms: _117  and  _118
REMARK   47  A    between atoms: _117  and  _120
REMARK   48  A    between atoms: _120  and  _121
REMARK   49  A    between atoms: _124  and  _126
REMARK   50  A    between atoms: _126  and  _127
REMARK   51  A    between atoms: _126  and  _129
REMARK   52  A    between atoms: _129  and  _130
REMARK   53  A    between atoms: _135  and  _137
REMARK   54  A    between atoms: _137  and  _138
REMARK   55  A    between atoms: _137  and  _140
REMARK   56  A    between atoms: _140  and  _141
REMARK   57  A    between atoms: _147  and  _149
REMARK   58  A    between atoms: _149  and  _150
REMARK   59  A    between atoms: _149  and  _152
REMARK   60  A    between atoms: _152  and  _153
REMARK   61  A    between atoms: _159  and  _161
REMARK   62  A    between atoms: _161  and  _162
REMARK   63  A    between atoms: _161  and  _164
REMARK   64  A    between atoms: _164  and  _165
REMARK   65  A    between atoms: _165  and  _166
REMARK   66  A    between atoms: _166  and  _167
REMARK   67  A    between atoms: _176  and  _178
REMARK   68  A    between atoms: _178  and  _179
REMARK   69  A    between atoms: _178  and  _181
REMARK   70  A    between atoms: _181  and  _182
REMARK   71  A    between atoms: _187  and  _189
REMARK   72  A    between atoms: _189  and  _190
REMARK   73  A    between atoms: _189  and  _192
REMARK   74  A    between atoms: _192  and  _193
REMARK   75  A    between atoms: _196  and  _198
REMARK   76  A    between atoms: _198  and  _199
REMARK   77  A    between atoms: _198  and  _201
REMARK   78  A    between atoms: _201  and  _202
REMARK   79  A    between atoms: _205  and  _207
REMARK   80  A    between atoms: _207  and  _208
REMARK   81  A    between atoms: _207  and  _210
REMARK   82  A    between atoms: _210  and  _211
REMARK   83  A    between atoms: _216  and  _218
REMARK   84  A    between atoms: _218  and  _219
REMARK   85  A    between atoms: _218  and  _221
REMARK   86  A    between atoms: _221  and  _222
REMARK   87  A    between atoms: _227  and  _228
REMARK   88  A    between atoms: _230  and  _232
REMARK   89  A    between atoms: _232  and  _233
REMARK   90  A    between atoms: _232  and  _235
REMARK   91  A    between atoms: _235  and  _236
REMARK   92  A    between atoms: _239  and  _241
REMARK   93  A    between atoms: _241  and  _242
REMARK   94  A    between atoms: _241  and  _244
REMARK   95  A    between atoms: _244  and  _245
REMARK   96  A    between atoms: _250  and  _252
REMARK   97  A    between atoms: _252  and  _253
REMARK   98  A    between atoms: _252  and  _255
REMARK   99  A    between atoms: _255  and  _256
REMARK  100  A    between atoms: _261  and  _263
REMARK  101  A    between atoms: _263  and  _264
REMARK  102  A    between atoms: _263  and  _266
REMARK  103  A    between atoms: _266  and  _267
REMARK  104  A    between atoms: _270  and  _272
REMARK  105  A    between atoms: _272  and  _273
REMARK  106  A    between atoms: _272  and  _275
REMARK  107  A    between atoms: _278  and  _280
REMARK  108  A    between atoms: _280  and  _281
REMARK  109  A    between atoms: _280  and  _283
REMARK  110  A    between atoms: _283  and  _284
REMARK  111  A    between atoms: _287  and  _289
REMARK  112  A    between atoms: _289  and  _290
REMARK  113  A    between atoms: _289  and  _292
REMARK  114  A    between atoms: _292  and  _293
REMARK  115  A    between atoms: _293  and  _294
REMARK  116  A    between atoms: _297  and  _299
REMARK  117  A    between atoms: _299  and  _300
REMARK  118  A    between atoms: _303  and  _305
REMARK  119  A    between atoms: _305  and  _306
REMARK  120  A    between atoms: _305  and  _308
REMARK  121  A    between atoms: _308  and  _309
REMARK  122  A    between atoms: _312  and  _314
REMARK  123  A    between atoms: _314  and  _315
REMARK  124  A    between atoms: _314  and  _317
REMARK  125  A    between atoms: _317  and  _318
REMARK  126  A    between atoms: _318  and  _319
REMARK  127  A    between atoms: _322  and  _324
REMARK  128  A    between atoms: _324  and  _325
REMARK  129  A    between atoms: _324  and  _327
REMARK  130  A    between atoms: _327  and  _328
REMARK  131  A    between atoms: _333  and  _335
REMARK  132  A    between atoms: _335  and  _336
REMARK  133  A    between atoms: _338  and  _340
REMARK  134  A    between atoms: _340  and  _341
REMARK  135  A    between atoms: _340  and  _343
REMARK  136  A    between atoms: _346  and  _348
REMARK  137  A    between atoms: _348  and  _349
REMARK  138  A    between atoms: _352  and  _354
REMARK  139  A    between atoms: _354  and  _355
REMARK  140  A    between atoms: _354  and  _357
REMARK  141  A    between atoms: _357  and  _358
REMARK  142  A    between atoms: _363  and  _365
REMARK  143  A    between atoms: _365  and  _366
REMARK  144  A    between atoms: _365  and  _368
REMARK  145  A    between atoms: _368  and  _369
REMARK  146  A    between atoms: _369  and  _370
REMARK  147  A    between atoms: _370  and  _371
REMARK  148  A    between atoms: _371  and  _372
REMARK  149  A    between atoms: _376  and  _378
REMARK  150  A    between atoms: _378  and  _379
REMARK  151  A    between atoms: _378  and  _381
REMARK  152  A    between atoms: _381  and  _382
REMARK  153  A    between atoms: _385  and  _387
REMARK  154  A    between atoms: _387  and  _388
REMARK  155  A    between atoms: _387  and  _390
REMARK  156  A    between atoms: _390  and  _391
REMARK  157  A    between atoms: _396  and  _398
REMARK  158  A    between atoms: _398  and  _399
REMARK  159  A    between atoms: _401  and  _403
REMARK  160  A    between atoms: _403  and  _404
REMARK  161  A    between atoms: _403  and  _406
REMARK  162  A    between atoms: _406  and  _407
REMARK  163  A    between atoms: _407  and  _408
REMARK  164  A    between atoms: _408  and  _409
REMARK  165  A    between atoms: _409  and  _410
REMARK  166  A    between atoms: _414  and  _416
REMARK  167  A    between atoms: _416  and  _417
REMARK  168  A    between atoms: _416  and  _419
REMARK  169  A    between atoms: _419  and  _420
REMARK  170  A    between atoms: _420  and  _421
REMARK  171  A    between atoms: _421  and  _422
REMARK  172  A    between atoms: _431  and  _433
REMARK  173  A    between atoms: _433  and  _434
REMARK  174  A    between atoms: _433  and  _436
REMARK  175  A    between atoms: _436  and  _437
REMARK  176  A    between atoms: _442  and  _444
REMARK  177  A    between atoms: _444  and  _445
REMARK  178  A    between atoms: _444  and  _447
REMARK  179  A    between atoms: _447  and  _448
REMARK  180  A    between atoms: _453  and  _454
REMARK  181  A    between atoms: _456  and  _458
REMARK  182  A    between atoms: _458  and  _459
REMARK  183  A    between atoms: _458  and  _461
REMARK  184  A    between atoms: _461  and  _462
REMARK  185  A    between atoms: _462  and  _463
REMARK  186  A    between atoms: _463  and  _464
REMARK  187  A    between atoms: _464  and  _465
REMARK  188  A    between atoms: _469  and  _471
REMARK  189  A    between atoms: _471  and  _472
REMARK  190  A    between atoms: _471  and  _474
REMARK  191  A    between atoms: _474  and  _475
REMARK  192  A    between atoms: _477  and  _479
REMARK  193  A    between atoms: _479  and  _480
REMARK  194  A    between atoms: _479  and  _482
REMARK  195  A    between atoms: _482  and  _483
REMARK  196  A    between atoms: _486  and  _488
REMARK  197  A    between atoms: _488  and  _489
REMARK  198  A    between atoms: _488  and  _491
REMARK  199  A    between atoms: _491  and  _492
REMARK  200  A    between atoms: _492  and  _493
REMARK  201  A    between atoms: _496  and  _498
REMARK  202  A    between atoms: _498  and  _499
REMARK  203  A    between atoms: _502  and  _504
REMARK  204  A    between atoms: _504  and  _505
REMARK  205  A    between atoms: _504  and  _507
REMARK  206  A    between atoms: _507  and  _508
REMARK  207  A    between atoms: _510  and  _512
REMARK  208  A    between atoms: _512  and  _513
REMARK  209  A    between atoms: _515  and  _517
REMARK  210  A    between atoms: _517  and  _518
REMARK  211  A    between atoms: _517  and  _520
REMARK  212  A    between atoms: _520  and  _521
REMARK  213  A    between atoms: _524  and  _526
REMARK  214  A    between atoms: _526  and  _527
REMARK  215  A    between atoms: _529  and  _531
REMARK  216  A    between atoms: _531  and  _532
REMARK  217  A    between atoms: _531  and  _534
REMARK  218  A    between atoms: _534  and  _535
REMARK  219  A    between atoms: _540  and  _542
REMARK  220  A    between atoms: _542  and  _543
REMARK  221  A    between atoms: _542  and  _545
REMARK  222  A    between atoms: _545  and  _546
REMARK  223  A    between atoms: _546  and  _547
REMARK  224  A    between atoms: _554  and  _555
REMARK  225  A    between atoms: _555  and  _571
REMARK  226  A    between atoms: _556  and  _558
REMARK  227  A    between atoms: _558  and  _559
REMARK  228  A    between atoms: _559  and  _560
REMARK  229  A    between atoms: _564  and  _566
REMARK  230  A    between atoms: _566  and  _567
REMARK  231  A    between atoms: _566  and  _574
REMARK  232  A    between atoms: _567  and  _568
REMARK  233  A    between atoms: _568  and  _569
REMARK  234  A    between atoms: _569  and  _570
REMARK  235  A    between atoms: _570  and  _571
REMARK  236  A    between atoms: _576  and  _578
REMARK  237  A    between atoms: _578  and  _579
REMARK  238  A    between atoms: _578  and  _581
REMARK  239  A    between atoms: _581  and  _582
REMARK  240  A    between atoms: _585  and  _587
REMARK  241  A    between atoms: _587  and  _588
REMARK  242  A    between atoms: _590  and  _592
REMARK  243  A    between atoms: _592  and  _593
REMARK  244  A    between atoms: _596  and  _598
REMARK  245  A    between atoms: _598  and  _599
REMARK  246  A    between atoms: _598  and  _601
REMARK  247  A    between atoms: _601  and  _602
REMARK  248  A    between atoms: _607  and  _608
REMARK                            x       y       z     vdW  Elec       q    Type
REMARK                         _______ _______ _______ _____ _____    ______ ____
ROOT
ATOM      1  C   GLY A   5      28.599  19.889  34.395  0.00  0.00    +0.243 C 
ATOM      2  O   GLY A   5      28.225  18.950  35.084  0.00  0.00    -0.273 OA
ATOM      3  N   ARG A   6      27.913  20.281  33.326  0.00  0.00    -0.297 N 
ATOM      4  H   ARG A   6      28.220  21.117  32.788  0.00  0.00    +0.150 HD
ENDROOT
BRANCH   3   5
ATOM      5  CA  ARG A   6      26.734  19.540  32.910  0.00  0.00    +0.149 C 
BRANCH   5   6
ATOM      6  C   ARG A   6      27.098  18.182  32.301  0.00  0.00    +0.241 C 
ATOM      7  O   ARG A   6      26.329  17.245  32.435  0.00  0.00    -0.273 OA
ATOM      8  N   LEU A   7      28.281  18.069  31.688  0.00  0.00    -0.297 N 
ATOM      9  H   LEU A   7      28.883  18.910  31.581  0.00  0.00    +0.150 HD
BRANCH   8  10
ATOM     10  CA  LEU A   7      28.734  16.811  31.176  0.00  0.00    +0.149 C 
BRANCH  10  11
ATOM     11  C   LEU A   7      28.902  15.761  32.313  0.00  0.00    +0.241 C 
ATOM     12  N   ALA A   8      29.446  16.207  33.476  0.00  0.00    -0.298 N 
ATOM     13  H   ALA A   8      29.748  17.200  33.537  0.00  0.00    +0.150 HD
ATOM     14  O   LEU A   7      28.525  14.602  32.158  0.00  0.00    -0.273 OA
BRANCH  12  15
ATOM     15  CA  ALA A   8      29.618  15.371  34.611  0.00  0.00    +0.137 C 
ATOM     16  CB  ALA A   8      30.451  16.145  35.729  0.00  0.00    +0.030 C 
BRANCH  15  17
ATOM     17  C   ALA A   8      28.203  14.919  35.086  0.00  0.00    +0.227 C 
ATOM     18  O   ALA A   8      28.007  13.755  35.376  0.00  0.00    -0.286 OA
ENDBRANCH  15  17
ENDBRANCH  12  15
ENDBRANCH  10  11
BRANCH  10  19
ATOM     19  CB  LEU A   7      30.075  17.007  30.443  0.00  0.00    +0.029 C 
BRANCH  19  20
ATOM     20  CG  LEU A   7      30.492  15.723  29.708  0.00  0.00    +0.002 C 
ATOM     21  CD2 LEU A   7      31.978  15.637  29.339  0.00  0.00    +0.000 C 
ATOM     22  CD1 LEU A   7      29.623  15.519  28.452  0.00  0.00    +0.000 C 
ENDBRANCH  19  20
ENDBRANCH  10  19
ENDBRANCH   8  10
ENDBRANCH   5   6
BRANCH   5  23
ATOM     23  CB  ARG A   6      25.828  20.385  31.960  0.00  0.00    +0.033 C 
BRANCH  23  24
ATOM     24  CG  ARG A   6      24.604  19.603  31.478  0.00  0.00    +0.045 C 
BRANCH  24  25
ATOM     25  CD  ARG A   6      23.576  19.294  32.629  0.00  0.00    +0.174 C 
BRANCH  25  26
ATOM     26  NE  ARG A   6      23.204  17.890  32.518  0.00  0.00    -0.265 N 
ATOM     27  CZ  ARG A   6      22.401  17.254  33.364  0.00  0.00    +0.342 C 
ATOM     28  NH2 ARG A   6      21.918  17.906  34.405  0.00  0.00    -0.292 N 
ATOM     29 HH21 ARG A   6      21.288  17.421  35.076  0.00  0.00    +0.255 HD
ATOM     30 HH22 ARG A   6      22.167  18.905  34.555  0.00  0.00    +0.255 HD
ATOM     31  NH1 ARG A   6      22.074  15.983  33.119  0.00  0.00    -0.292 N 
ATOM     32 HH11 ARG A   6      21.446  15.472  33.772  0.00  0.00    +0.255 HD
ATOM     33 HH12 ARG A   6      22.447  15.504  32.275  0.00  0.00    +0.255 HD
ATOM     34  HE  ARG A   6      23.594  17.348  31.721  0.00  0.00    +0.259 HD
ENDBRANCH  25  26
ENDBRANCH  24  25
ENDBRANCH  23  24
ENDBRANCH   5  23
ENDBRANCH   3   5
BRANCH   1  35
ATOM     35  CA  GLY A   5      29.848  20.711  34.775  0.00  0.00    +0.176 C 
BRANCH  35  37
ATOM     36  C   LEU A   4      31.249  20.319  32.826  0.00  0.00    +0.241 C 
ATOM     37  N   GLY A   5      30.569  21.196  33.578  0.00  0.00    -0.295 N 
ATOM     38  H   GLY A   5      30.549  22.204  33.323  0.00  0.00    +0.150 HD
ATOM     39  O   LEU A   4      31.292  19.134  33.096  0.00  0.00    -0.273 OA
BRANCH  36  40
ATOM     40  CA  LEU A   4      31.977  20.849  31.537  0.00  0.00    +0.149 C 
BRANCH  40  42
ATOM     41  C   GLY A   3      29.948  21.426  30.306  0.00  0.00    +0.243 C 
ATOM     42  N   LEU A   4      31.095  21.835  30.848  0.00  0.00    -0.297 N 
ATOM     43  H   LEU A   4      31.373  22.835  30.791  0.00  0.00    +0.150 HD
ATOM     44  O   GLY A   3      29.598  20.240  30.356  0.00  0.00    -0.273 OA
BRANCH  41  45
ATOM     45  CA  GLY A   3      29.086  22.461  29.635  0.00  0.00    +0.176 C 
BRANCH  45  48
ATOM     46  C   GLY A   2      28.529  23.985  31.441  0.00  0.00    +0.243 C 
ATOM     47  O   GLY A   2      28.184  23.043  32.177  0.00  0.00    -0.273 OA
ATOM     48  N   GLY A   3      29.114  23.811  30.232  0.00  0.00    -0.295 N 
ATOM     49  H   GLY A   3      29.570  24.605  29.739  0.00  0.00    +0.150 HD
BRANCH  46  50
ATOM     50  CA  GLY A   2      28.342  25.388  31.919  0.00  0.00    +0.176 C 
BRANCH  50  53
ATOM     51  C   ASN A   1      28.672  26.636  33.980  0.00  0.00    +0.239 C 
ATOM     52  O   ASN A   1      27.980  27.559  33.575  0.00  0.00    -0.274 OA
ATOM     53  N   GLY A   2      28.830  25.495  33.312  0.00  0.00    -0.296 N 
ATOM     54  H   GLY A   2      29.294  24.683  33.767  0.00  0.00    +0.150 HD
BRANCH  51  55
ATOM     55  CA  ASN A   1      29.405  26.769  35.331  0.00  0.00    +0.154 C 
BRANCH  55  56
ATOM     56  N   ASN A   1      29.442  25.504  36.069  0.00  0.00    -0.238 NA
ATOM     57  H   ASN A   1      30.132  24.771  35.807  0.00  0.00    +0.142 HD
ENDBRANCH  55  56
BRANCH  55  58
ATOM     58  CB  ASN A   1      30.845  27.204  35.083  0.00  0.00    +0.111 C 
BRANCH  58  59
ATOM     59  CG  ASN A   1      31.382  27.998  36.249  0.00  0.00    +0.221 C 
ATOM     60  ND2 ASN A   1      32.374  27.452  36.933  0.00  0.00    -0.329 N 
ATOM     61 HD21 ASN A   1      32.759  27.938  37.768  0.00  0.00    +0.145 HD
ATOM     62 HD22 ASN A   1      32.769  26.537  36.636  0.00  0.00    +0.145 HD
ATOM     63  OD1 ASN A   1      30.872  29.077  36.549  0.00  0.00    -0.275 OA
ENDBRANCH  58  59
ENDBRANCH  55  58
ENDBRANCH  51  55
ENDBRANCH  50  53
ENDBRANCH  46  50
ENDBRANCH  45  48
ENDBRANCH  41  45
ENDBRANCH  40  42
BRANCH  40  64
ATOM     64  CB  LEU A   4      33.316  21.452  31.895  0.00  0.00    +0.029 C 
BRANCH  64  65
ATOM     65  CG  LEU A   4      34.329  20.605  32.719  0.00  0.00    +0.002 C 
ATOM     66  CD2 LEU A   4      34.024  20.930  34.173  0.00  0.00    +0.000 C 
ATOM     67  CD1 LEU A   4      35.769  21.069  32.467  0.00  0.00    +0.000 C 
ENDBRANCH  64  65
ENDBRANCH  40  64
ENDBRANCH  36  40
ENDBRANCH  35  37
ENDBRANCH   1  35
TORSDOF 26
REMARK  Name = ../refined-set-2016/4el5/4el5_pocket.pdb
REMARK  248 active torsions:
REMARK  status: ('A' for Active; 'I' for Inactive)
REMARK    1  A    between atoms: _1  and  _3
REMARK    2  A    between atoms: _3  and  _4
REMARK    3  A    between atoms: _3  and  _6
REMARK    4  A    between atoms: _6  and  _7
REMARK    5  A    between atoms: _12  and  _13
REMARK    6  A    between atoms: _15  and  _17
REMARK    7  A    between atoms: _17  and  _18
REMARK    8  A    between atoms: _17  and  _20
REMARK    9  A    between atoms: _20  and  _21
REMARK   10  A    between atoms: _21  and  _22
REMARK   11  A    between atoms: _25  and  _27
REMARK   12  A    between atoms: _27  and  _28
REMARK   13  A    between atoms: _27  and  _30
REMARK   14  A    between atoms: _30  and  _31
REMARK   15  A    between atoms: _36  and  _38
REMARK   16  A    between atoms: _38  and  _39
REMARK   17  A    between atoms: _41  and  _43
REMARK   18  A    between atoms: _43  and  _44
REMARK   19  A    between atoms: _46  and  _48
REMARK   20  A    between atoms: _48  and  _49
REMARK   21  A    between atoms: _48  and  _51
REMARK   22  A    between atoms: _51  and  _52
REMARK   23  A    between atoms: _55  and  _57
REMARK   24  A    between atoms: _57  and  _58
REMARK   25  A    between atoms: _60  and  _62
REMARK   26  A    between atoms: _62  and  _63
REMARK   27  A    between atoms: _62  and  _65
REMARK   28  A    between atoms: _65  and  _66
REMARK   29  A    between atoms: _66  and  _67
REMARK   30  A    between atoms: _67  and  _68
REMARK   31  A    between atoms: _77  and  _79
REMARK   32  A    between atoms: _79  and  _80
REMARK   33  A    between atoms: _79  and  _82
REMARK   34  A    between atoms: _82  and  _83
REMARK   35  A    between atoms: _86  and  _88
REMARK   36  A    between atoms: _88  and  _89
REMARK   37  A    between atoms: _92  and  _94
REMARK   38  A    between atoms: _94  and  _95
REMARK   39  A    between atoms: _94  and  _97
REMARK   40  A    between atoms: _97  and  _98
REMARK   41  A    between atoms: _104  and  _106
REMARK   42  A    between atoms: _106  and  _107
REMARK   43  A    between atoms: _106  and  _109
REMARK   44  A    between atoms: _109  and  _110
REMARK   45  A    between atoms: _115  and  _117
REMARK   46  A    between atoms: _117  and  _118
REMARK   47  A    between atoms: _117  and  _120
REMARK   48  A    between atoms: _120  and  _121
REMARK   49  A    between atoms: _124  and  _126
REMARK   50  A    between atoms: _126  and  _127
REMARK   51  A    between atoms: _126  and  _129
REMARK   52  A    between atoms: _129  and  _130
REMARK   53  A    between atoms: _135  and  _137
REMARK   54  A    between atoms: _137  and  _138
REMARK   55  A    between atoms: _137  and  _140
REMARK   56  A    between atoms: _140  and  _141
REMARK   57  A    between atoms: _147  and  _149
REMARK   58  A    between atoms: _149  and  _150
REMARK   59  A    between atoms: _149  and  _152
REMARK   60  A    between atoms: _152  and  _153
REMARK   61  A    between atoms: _159  and  _161
REMARK   62  A    between atoms: _161  and  _162
REMARK   63  A    between atoms: _161  and  _164
REMARK   64  A    between atoms: _164  and  _165
REMARK   65  A    between atoms: _165  and  _166
REMARK   66  A    between atoms: _166  and  _167
REMARK   67  A    between atoms: _176  and  _178
REMARK   68  A    between atoms: _178  and  _179
REMARK   69  A    between atoms: _178  and  _181
REMARK   70  A    between atoms: _181  and  _182
REMARK   71  A    between atoms: _187  and  _189
REMARK   72  A    between atoms: _189  and  _190
REMARK   73  A    between atoms: _189  and  _192
REMARK   74  A    between atoms: _192  and  _193
REMARK   75  A    between atoms: _196  and  _198
REMARK   76  A    between atoms: _198  and  _199
REMARK   77  A    between atoms: _198  and  _201
REMARK   78  A    between atoms: _201  and  _202
REMARK   79  A    between atoms: _205  and  _207
REMARK   80  A    between atoms: _207  and  _208
REMARK   81  A    between atoms: _207  and  _210
REMARK   82  A    between atoms: _210  and  _211
REMARK   83  A    between atoms: _216  and  _218
REMARK   84  A    between atoms: _218  and  _219
REMARK   85  A    between atoms: _218  and  _221
REMARK   86  A    between atoms: _221  and  _222
REMARK   87  A    between atoms: _227  and  _228
REMARK   88  A    between atoms: _230  and  _232
REMARK   89  A    between atoms: _232  and  _233
REMARK   90  A    between atoms: _232  and  _235
REMARK   91  A    between atoms: _235  and  _236
REMARK   92  A    between atoms: _239  and  _241
REMARK   93  A    between atoms: _241  and  _242
REMARK   94  A    between atoms: _241  and  _244
REMARK   95  A    between atoms: _244  and  _245
REMARK   96  A    between atoms: _250  and  _252
REMARK   97  A    between atoms: _252  and  _253
REMARK   98  A    between atoms: _252  and  _255
REMARK   99  A    between atoms: _255  and  _256
REMARK  100  A    between atoms: _261  and  _263
REMARK  101  A    between atoms: _263  and  _264
REMARK  102  A    between atoms: _263  and  _266
REMARK  103  A    between atoms: _266  and  _267
REMARK  104  A    between atoms: _270  and  _272
REMARK  105  A    between atoms: _272  and  _273
REMARK  106  A    between atoms: _272  and  _275
REMARK  107  A    between atoms: _278  and  _280
REMARK  108  A    between atoms: _280  and  _281
REMARK  109  A    between atoms: _280  and  _283
REMARK  110  A    between atoms: _283  and  _284
REMARK  111  A    between atoms: _287  and  _289
REMARK  112  A    between atoms: _289  and  _290
REMARK  113  A    between atoms: _289  and  _292
REMARK  114  A    between atoms: _292  and  _293
REMARK  115  A    between atoms: _293  and  _294
REMARK  116  A    between atoms: _297  and  _299
REMARK  117  A    between atoms: _299  and  _300
REMARK  118  A    between atoms: _303  and  _305
REMARK  119  A    between atoms: _305  and  _306
REMARK  120  A    between atoms: _305  and  _308
REMARK  121  A    between atoms: _308  and  _309
REMARK  122  A    between atoms: _312  and  _314
REMARK  123  A    between atoms: _314  and  _315
REMARK  124  A    between atoms: _314  and  _317
REMARK  125  A    between atoms: _317  and  _318
REMARK  126  A    between atoms: _318  and  _319
REMARK  127  A    between atoms: _322  and  _324
REMARK  128  A    between atoms: _324  and  _325
REMARK  129  A    between atoms: _324  and  _327
REMARK  130  A    between atoms: _327  and  _328
REMARK  131  A    between atoms: _333  and  _335
REMARK  132  A    between atoms: _335  and  _336
REMARK  133  A    between atoms: _338  and  _340
REMARK  134  A    between atoms: _340  and  _341
REMARK  135  A    between atoms: _340  and  _343
REMARK  136  A    between atoms: _346  and  _348
REMARK  137  A    between atoms: _348  and  _349
REMARK  138  A    between atoms: _352  and  _354
REMARK  139  A    between atoms: _354  and  _355
REMARK  140  A    between atoms: _354  and  _357
REMARK  141  A    between atoms: _357  and  _358
REMARK  142  A    between atoms: _363  and  _365
REMARK  143  A    between atoms: _365  and  _366
REMARK  144  A    between atoms: _365  and  _368
REMARK  145  A    between atoms: _368  and  _369
REMARK  146  A    between atoms: _369  and  _370
REMARK  147  A    between atoms: _370  and  _371
REMARK  148  A    between atoms: _371  and  _372
REMARK  149  A    between atoms: _376  and  _378
REMARK  150  A    between atoms: _378  and  _379
REMARK  151  A    between atoms: _378  and  _381
REMARK  152  A    between atoms: _381  and  _382
REMARK  153  A    between atoms: _385  and  _387
REMARK  154  A    between atoms: _387  and  _388
REMARK  155  A    between atoms: _387  and  _390
REMARK  156  A    between atoms: _390  and  _391
REMARK  157  A    between atoms: _396  and  _398
REMARK  158  A    between atoms: _398  and  _399
REMARK  159  A    between atoms: _401  and  _403
REMARK  160  A    between atoms: _403  and  _404
REMARK  161  A    between atoms: _403  and  _406
REMARK  162  A    between atoms: _406  and  _407
REMARK  163  A    between atoms: _407  and  _408
REMARK  164  A    between atoms: _408  and  _409
REMARK  165  A    between atoms: _409  and  _410
REMARK  166  A    between atoms: _414  and  _416
REMARK  167  A    between atoms: _416  and  _417
REMARK  168  A    between atoms: _416  and  _419
REMARK  169  A    between atoms: _419  and  _420
REMARK  170  A    between atoms: _420  and  _421
REMARK  171  A    between atoms: _421  and  _422
REMARK  172  A    between atoms: _431  and  _433
REMARK  173  A    between atoms: _433  and  _434
REMARK  174  A    between atoms: _433  and  _436
REMARK  175  A    between atoms: _436  and  _437
REMARK  176  A    between atoms: _442  and  _444
REMARK  177  A    between atoms: _444  and  _445
REMARK  178  A    between atoms: _444  and  _447
REMARK  179  A    between atoms: _447  and  _448
REMARK  180  A    between atoms: _453  and  _454
REMARK  181  A    between atoms: _456  and  _458
REMARK  182  A    between atoms: _458  and  _459
REMARK  183  A    between atoms: _458  and  _461
REMARK  184  A    between atoms: _461  and  _462
REMARK  185  A    between atoms: _462  and  _463
REMARK  186  A    between atoms: _463  and  _464
REMARK  187  A    between atoms: _464  and  _465
REMARK  188  A    between atoms: _469  and  _471
REMARK  189  A    between atoms: _471  and  _472
REMARK  190  A    between atoms: _471  and  _474
REMARK  191  A    between atoms: _474  and  _475
REMARK  192  A    between atoms: _477  and  _479
REMARK  193  A    between atoms: _479  and  _480
REMARK  194  A    between atoms: _479  and  _482
REMARK  195  A    between atoms: _482  and  _483
REMARK  196  A    between atoms: _486  and  _488
REMARK  197  A    between atoms: _488  and  _489
REMARK  198  A    between atoms: _488  and  _491
REMARK  199  A    between atoms: _491  and  _492
REMARK  200  A    between atoms: _492  and  _493
REMARK  201  A    between atoms: _496  and  _498
REMARK  202  A    between atoms: _498  and  _499
REMARK  203  A    between atoms: _502  and  _504
REMARK  204  A    between atoms: _504  and  _505
REMARK  205  A    between atoms: _504  and  _507
REMARK  206  A    between atoms: _507  and  _508
REMARK  207  A    between atoms: _510  and  _512
REMARK  208  A    between atoms: _512  and  _513
REMARK  209  A    between atoms: _515  and  _517
REMARK  210  A    between atoms: _517  and  _518
REMARK  211  A    between atoms: _517  and  _520
REMARK  212  A    between atoms: _520  and  _521
REMARK  213  A    between atoms: _524  and  _526
REMARK  214  A    between atoms: _526  and  _527
REMARK  215  A    between atoms: _529  and  _531
REMARK  216  A    between atoms: _531  and  _532
REMARK  217  A    between atoms: _531  and  _534
REMARK  218  A    between atoms: _534  and  _535
REMARK  219  A    between atoms: _540  and  _542
REMARK  220  A    between atoms: _542  and  _543
REMARK  221  A    between atoms: _542  and  _545
REMARK  222  A    between atoms: _545  and  _546
REMARK  223  A    between atoms: _546  and  _547
REMARK  224  A    between atoms: _554  and  _555
REMARK  225  A    between atoms: _555  and  _571
REMARK  226  A    between atoms: _556  and  _558
REMARK  227  A    between atoms: _558  and  _559
REMARK  228  A    between atoms: _559  and  _560
REMARK  229  A    between atoms: _564  and  _566
REMARK  230  A    between atoms: _566  and  _567
REMARK  231  A    between atoms: _566  and  _574
REMARK  232  A    between atoms: _567  and  _568
REMARK  233  A    between atoms: _568  and  _569
REMARK  234  A    between atoms: _569  and  _570
REMARK  235  A    between atoms: _570  and  _571
REMARK  236  A    between atoms: _576  and  _578
REMARK  237  A    between atoms: _578  and  _579
REMARK  238  A    between atoms: _578  and  _581
REMARK  239  A    between atoms: _581  and  _582
REMARK  240  A    between atoms: _585  and  _587
REMARK  241  A    between atoms: _587  and  _588
REMARK  242  A    between atoms: _590  and  _592
REMARK  243  A    between atoms: _592  and  _593
REMARK  244  A    between atoms: _596  and  _598
REMARK  245  A    between atoms: _598  and  _599
REMARK  246  A    between atoms: _598  and  _601
REMARK  247  A    between atoms: _601  and  _602
REMARK  248  A    between atoms: _607  and  _608
REMARK                            x       y       z     vdW  Elec       q    Type
REMARK                         _______ _______ _______ _____ _____    ______ ____
ROOT
ATOM      1  CB  PHE A   1      29.092  11.462  32.912  0.00  0.00    +0.051 C 
ENDROOT
BRANCH   1   2
ATOM      2  CG  PHE A   1      29.814  11.661  31.600  0.00  0.00    -0.020 A 
ATOM      3  CD2 PHE A   1      31.184  11.823  31.571  0.00  0.00    -0.004 A 
ATOM      4  CE2 PHE A   1      31.851  11.986  30.273  0.00  0.00    -0.000 A 
ATOM      5  CZ  PHE A   1      31.123  12.016  29.124  0.00  0.00    -0.000 A 
ATOM      6  CE1 PHE A   1      29.743  11.917  29.155  0.00  0.00    -0.000 A 
ATOM      7  CD1 PHE A   1      29.091  11.739  30.394  0.00  0.00    -0.004 A 
ENDBRANCH   1   2
BRANCH   1   8
ATOM      8  CA  PHE A   1      27.627  11.060  32.752  0.00  0.00    +0.137 C 
BRANCH   8   9
ATOM      9  N   PHE A   1      26.822  12.250  32.630  0.00  0.00    -0.239 NA
ATOM     10  H   PHE A   1      27.278  13.179  32.731  0.00  0.00    +0.142 HD
ENDBRANCH   8   9
BRANCH   8  11
ATOM     11  C   PHE A   1      27.183  10.225  33.961  0.00  0.00    +0.224 C 
ATOM     12  O   PHE A   1      27.064   8.984  33.901  0.00  0.00    -0.287 OA
ENDBRANCH   8  11
ENDBRANCH   1   8
TORSDOF 4
REMARK  Name = ../refined-set-2016/4el5/4el5_pocket.pdb
REMARK  248 active torsions:
REMARK  status: ('A' for Active; 'I' for Inactive)
REMARK    1  A    between atoms: _1  and  _3
REMARK    2  A    between atoms: _3  and  _4
REMARK    3  A    between atoms: _3  and  _6
REMARK    4  A    between atoms: _6  and  _7
REMARK    5  A    between atoms: _12  and  _13
REMARK    6  A    between atoms: _15  and  _17
REMARK    7  A    between atoms: _17  and  _18
REMARK    8  A    between atoms: _17  and  _20
REMARK    9  A    between atoms: _20  and  _21
REMARK   10  A    between atoms: _21  and  _22
REMARK   11  A    between atoms: _25  and  _27
REMARK   12  A    between atoms: _27  and  _28
REMARK   13  A    between atoms: _27  and  _30
REMARK   14  A    between atoms: _30  and  _31
REMARK   15  A    between atoms: _36  and  _38
REMARK   16  A    between atoms: _38  and  _39
REMARK   17  A    between atoms: _41  and  _43
REMARK   18  A    between atoms: _43  and  _44
REMARK   19  A    between atoms: _46  and  _48
REMARK   20  A    between atoms: _48  and  _49
REMARK   21  A    between atoms: _48  and  _51
REMARK   22  A    between atoms: _51  and  _52
REMARK   23  A    between atoms: _55  and  _57
REMARK   24  A    between atoms: _57  and  _58
REMARK   25  A    between atoms: _60  and  _62
REMARK   26  A    between atoms: _62  and  _63
REMARK   27  A    between atoms: _62  and  _65
REMARK   28  A    between atoms: _65  and  _66
REMARK   29  A    between atoms: _66  and  _67
REMARK   30  A    between atoms: _67  and  _68
REMARK   31  A    between atoms: _77  and  _79
REMARK   32  A    between atoms: _79  and  _80
REMARK   33  A    between atoms: _79  and  _82
REMARK   34  A    between atoms: _82  and  _83
REMARK   35  A    between atoms: _86  and  _88
REMARK   36  A    between atoms: _88  and  _89
REMARK   37  A    between atoms: _92  and  _94
REMARK   38  A    between atoms: _94  and  _95
REMARK   39  A    between atoms: _94  and  _97
REMARK   40  A    between atoms: _97  and  _98
REMARK   41  A    between atoms: _104  and  _106
REMARK   42  A    between atoms: _106  and  _107
REMARK   43  A    between atoms: _106  and  _109
REMARK   44  A    between atoms: _109  and  _110
REMARK   45  A    between atoms: _115  and  _117
REMARK   46  A    between atoms: _117  and  _118
REMARK   47  A    between atoms: _117  and  _120
REMARK   48  A    between atoms: _120  and  _121
REMARK   49  A    between atoms: _124  and  _126
REMARK   50  A    between atoms: _126  and  _127
REMARK   51  A    between atoms: _126  and  _129
REMARK   52  A    between atoms: _129  and  _130
REMARK   53  A    between atoms: _135  and  _137
REMARK   54  A    between atoms: _137  and  _138
REMARK   55  A    between atoms: _137  and  _140
REMARK   56  A    between atoms: _140  and  _141
REMARK   57  A    between atoms: _147  and  _149
REMARK   58  A    between atoms: _149  and  _150
REMARK   59  A    between atoms: _149  and  _152
REMARK   60  A    between atoms: _152  and  _153
REMARK   61  A    between atoms: _159  and  _161
REMARK   62  A    between atoms: _161  and  _162
REMARK   63  A    between atoms: _161  and  _164
REMARK   64  A    between atoms: _164  and  _165
REMARK   65  A    between atoms: _165  and  _166
REMARK   66  A    between atoms: _166  and  _167
REMARK   67  A    between atoms: _176  and  _178
REMARK   68  A    between atoms: _178  and  _179
REMARK   69  A    between atoms: _178  and  _181
REMARK   70  A    between atoms: _181  and  _182
REMARK   71  A    between atoms: _187  and  _189
REMARK   72  A    between atoms: _189  and  _190
REMARK   73  A    between atoms: _189  and  _192
REMARK   74  A    between atoms: _192  and  _193
REMARK   75  A    between atoms: _196  and  _198
REMARK   76  A    between atoms: _198  and  _199
REMARK   77  A    between atoms: _198  and  _201
REMARK   78  A    between atoms: _201  and  _202
REMARK   79  A    between atoms: _205  and  _207
REMARK   80  A    between atoms: _207  and  _208
REMARK   81  A    between atoms: _207  and  _210
REMARK   82  A    between atoms: _210  and  _211
REMARK   83  A    between atoms: _216  and  _218
REMARK   84  A    between atoms: _218  and  _219
REMARK   85  A    between atoms: _218  and  _221
REMARK   86  A    between atoms: _221  and  _222
REMARK   87  A    between atoms: _227  and  _228
REMARK   88  A    between atoms: _230  and  _232
REMARK   89  A    between atoms: _232  and  _233
REMARK   90  A    between atoms: _232  and  _235
REMARK   91  A    between atoms: _235  and  _236
REMARK   92  A    between atoms: _239  and  _241
REMARK   93  A    between atoms: _241  and  _242
REMARK   94  A    between atoms: _241  and  _244
REMARK   95  A    between atoms: _244  and  _245
REMARK   96  A    between atoms: _250  and  _252
REMARK   97  A    between atoms: _252  and  _253
REMARK   98  A    between atoms: _252  and  _255
REMARK   99  A    between atoms: _255  and  _256
REMARK  100  A    between atoms: _261  and  _263
REMARK  101  A    between atoms: _263  and  _264
REMARK  102  A    between atoms: _263  and  _266
REMARK  103  A    between atoms: _266  and  _267
REMARK  104  A    between atoms: _270  and  _272
REMARK  105  A    between atoms: _272  and  _273
REMARK  106  A    between atoms: _272  and  _275
REMARK  107  A    between atoms: _278  and  _280
REMARK  108  A    between atoms: _280  and  _281
REMARK  109  A    between atoms: _280  and  _283
REMARK  110  A    between atoms: _283  and  _284
REMARK  111  A    between atoms: _287  and  _289
REMARK  112  A    between atoms: _289  and  _290
REMARK  113  A    between atoms: _289  and  _292
REMARK  114  A    between atoms: _292  and  _293
REMARK  115  A    between atoms: _293  and  _294
REMARK  116  A    between atoms: _297  and  _299
REMARK  117  A    between atoms: _299  and  _300
REMARK  118  A    between atoms: _303  and  _305
REMARK  119  A    between atoms: _305  and  _306
REMARK  120  A    between atoms: _305  and  _308
REMARK  121  A    between atoms: _308  and  _309
REMARK  122  A    between atoms: _312  and  _314
REMARK  123  A    between atoms: _314  and  _315
REMARK  124  A    between atoms: _314  and  _317
REMARK  125  A    between atoms: _317  and  _318
REMARK  126  A    between atoms: _318  and  _319
REMARK  127  A    between atoms: _322  and  _324
REMARK  128  A    between atoms: _324  and  _325
REMARK  129  A    between atoms: _324  and  _327
REMARK  130  A    between atoms: _327  and  _328
REMARK  131  A    between atoms: _333  and  _335
REMARK  132  A    between atoms: _335  and  _336
REMARK  133  A    between atoms: _338  and  _340
REMARK  134  A    between atoms: _340  and  _341
REMARK  135  A    between atoms: _340  and  _343
REMARK  136  A    between atoms: _346  and  _348
REMARK  137  A    between atoms: _348  and  _349
REMARK  138  A    between atoms: _352  and  _354
REMARK  139  A    between atoms: _354  and  _355
REMARK  140  A    between atoms: _354  and  _357
REMARK  141  A    between atoms: _357  and  _358
REMARK  142  A    between atoms: _363  and  _365
REMARK  143  A    between atoms: _365  and  _366
REMARK  144  A    between atoms: _365  and  _368
REMARK  145  A    between atoms: _368  and  _369
REMARK  146  A    between atoms: _369  and  _370
REMARK  147  A    between atoms: _370  and  _371
REMARK  148  A    between atoms: _371  and  _372
REMARK  149  A    between atoms: _376  and  _378
REMARK  150  A    between atoms: _378  and  _379
REMARK  151  A    between atoms: _378  and  _381
REMARK  152  A    between atoms: _381  and  _382
REMARK  153  A    between atoms: _385  and  _387
REMARK  154  A    between atoms: _387  and  _388
REMARK  155  A    between atoms: _387  and  _390
REMARK  156  A    between atoms: _390  and  _391
REMARK  157  A    between atoms: _396  and  _398
REMARK  158  A    between atoms: _398  and  _399
REMARK  159  A    between atoms: _401  and  _403
REMARK  160  A    between atoms: _403  and  _404
REMARK  161  A    between atoms: _403  and  _406
REMARK  162  A    between atoms: _406  and  _407
REMARK  163  A    between atoms: _407  and  _408
REMARK  164  A    between atoms: _408  and  _409
REMARK  165  A    between atoms: _409  and  _410
REMARK  166  A    between atoms: _414  and  _416
REMARK  167  A    between atoms: _416  and  _417
REMARK  168  A    between atoms: _416  and  _419
REMARK  169  A    between atoms: _419  and  _420
REMARK  170  A    between atoms: _420  and  _421
REMARK  171  A    between atoms: _421  and  _422
REMARK  172  A    between atoms: _431  and  _433
REMARK  173  A    between atoms: _433  and  _434
REMARK  174  A    between atoms: _433  and  _436
REMARK  175  A    between atoms: _436  and  _437
REMARK  176  A    between atoms: _442  and  _444
REMARK  177  A    between atoms: _444  and  _445
REMARK  178  A    between atoms: _444  and  _447
REMARK  179  A    between atoms: _447  and  _448
REMARK  180  A    between atoms: _453  and  _454
REMARK  181  A    between atoms: _456  and  _458
REMARK  182  A    between atoms: _458  and  _459
REMARK  183  A    between atoms: _458  and  _461
REMARK  184  A    between atoms: _461  and  _462
REMARK  185  A    between atoms: _462  and  _463
REMARK  186  A    between atoms: _463  and  _464
REMARK  187  A    between atoms: _464  and  _465
REMARK  188  A    between atoms: _469  and  _471
REMARK  189  A    between atoms: _471  and  _472
REMARK  190  A    between atoms: _471  and  _474
REMARK  191  A    between atoms: _474  and  _475
REMARK  192  A    between atoms: _477  and  _479
REMARK  193  A    between atoms: _479  and  _480
REMARK  194  A    between atoms: _479  and  _482
REMARK  195  A    between atoms: _482  and  _483
REMARK  196  A    between atoms: _486  and  _488
REMARK  197  A    between atoms: _488  and  _489
REMARK  198  A    between atoms: _488  and  _491
REMARK  199  A    between atoms: _491  and  _492
REMARK  200  A    between atoms: _492  and  _493
REMARK  201  A    between atoms: _496  and  _498
REMARK  202  A    between atoms: _498  and  _499
REMARK  203  A    between atoms: _502  and  _504
REMARK  204  A    between atoms: _504  and  _505
REMARK  205  A    between atoms: _504  and  _507
REMARK  206  A    between atoms: _507  and  _508
REMARK  207  A    between atoms: _510  and  _512
REMARK  208  A    between atoms: _512  and  _513
REMARK  209  A    between atoms: _515  and  _517
REMARK  210  A    between atoms: _517  and  _518
REMARK  211  A    between atoms: _517  and  _520
REMARK  212  A    between atoms: _520  and  _521
REMARK  213  A    between atoms: _524  and  _526
REMARK  214  A    between atoms: _526  and  _527
REMARK  215  A    between atoms: _529  and  _531
REMARK  216  A    between atoms: _531  and  _532
REMARK  217  A    between atoms: _531  and  _534
REMARK  218  A    between atoms: _534  and  _535
REMARK  219  A    between atoms: _540  and  _542
REMARK  220  A    between atoms: _542  and  _543
REMARK  221  A    between atoms: _542  and  _545
REMARK  222  A    between atoms: _545  and  _546
REMARK  223  A    between atoms: _546  and  _547
REMARK  224  A    between atoms: _554  and  _555
REMARK  225  A    between atoms: _555  and  _571
REMARK  226  A    between atoms: _556  and  _558
REMARK  227  A    between atoms: _558  and  _559
REMARK  228  A    between atoms: _559  and  _560
REMARK  229  A    between atoms: _564  and  _566
REMARK  230  A    between atoms: _566  and  _567
REMARK  231  A    between atoms: _566  and  _574
REMARK  232  A    between atoms: _567  and  _568
REMARK  233  A    between atoms: _568  and  _569
REMARK  234  A    between atoms: _569  and  _570
REMARK  235  A    between atoms: _570  and  _571
REMARK  236  A    between atoms: _576  and  _578
REMARK  237  A    between atoms: _578  and  _579
REMARK  238  A    between atoms: _578  and  _581
REMARK  239  A    between atoms: _581  and  _582
REMARK  240  A    between atoms: _585  and  _587
REMARK  241  A    between atoms: _587  and  _588
REMARK  242  A    between atoms: _590  and  _592
REMARK  243  A    between atoms: _592  and  _593
REMARK  244  A    between atoms: _596  and  _598
REMARK  245  A    between atoms: _598  and  _599
REMARK  246  A    between atoms: _598  and  _601
REMARK  247  A    between atoms: _601  and  _602
REMARK  248  A    between atoms: _607  and  _608
REMARK                            x       y       z     vdW  Elec       q    Type
REMARK                         _______ _______ _______ _____ _____    ______ ____
ROOT
ATOM      1  CA  ASN A   3      37.008  28.556  29.983  0.00  0.00    +0.158 C 
ENDROOT
BRANCH   1   2
ATOM      2  C   ASN A   3      37.957  29.721  30.150  0.00  0.00    +0.241 C 
ATOM      3  N   PHE A   4      38.336  29.977  31.405  0.00  0.00    -0.297 N 
ATOM      4  H   PHE A   4      37.940  29.413  32.184  0.00  0.00    +0.150 HD
ATOM      5  O   ASN A   3      38.346  30.373  29.186  0.00  0.00    -0.273 OA
BRANCH   3   6
ATOM      6  CA  PHE A   4      39.280  31.017  31.697  0.00  0.00    +0.153 C 
BRANCH   6   7
ATOM      7  C   PHE A   4      39.959  30.705  33.039  0.00  0.00    +0.241 C 
ATOM      8  O   PHE A   4      39.271  30.582  34.018  0.00  0.00    -0.273 OA
ATOM      9  N   PHE A   5      41.272  30.518  33.079  0.00  0.00    -0.298 N 
ATOM     10  H   PHE A   5      41.827  30.634  32.207  0.00  0.00    +0.150 HD
BRANCH   9  11
ATOM     11  CA  PHE A   5      41.954  30.155  34.310  0.00  0.00    +0.141 C 
BRANCH  11  12
ATOM     12  C   PHE A   5      42.265  31.439  35.170  0.00  0.00    +0.227 C 
ATOM     13  O   PHE A   5      42.785  32.411  34.666  0.00  0.00    -0.286 OA
ENDBRANCH  11  12
BRANCH  11  14
ATOM     14  CB  PHE A   5      43.230  29.382  33.961  0.00  0.00    +0.054 C 
BRANCH  14  15
ATOM     15  CG  PHE A   5      44.172  29.136  35.135  0.00  0.00    -0.020 A 
ATOM     16  CD2 PHE A   5      43.782  28.352  36.219  0.00  0.00    -0.004 A 
ATOM     17  CE2 PHE A   5      44.681  28.104  37.273  0.00  0.00    -0.000 A 
ATOM     18  CZ  PHE A   5      45.974  28.631  37.233  0.00  0.00    -0.000 A 
ATOM     19  CE1 PHE A   5      46.379  29.410  36.170  0.00  0.00    -0.000 A 
ATOM     20  CD1 PHE A   5      45.464  29.667  35.127  0.00  0.00    -0.004 A 
ENDBRANCH  14  15
ENDBRANCH  11  14
ENDBRANCH   9  11
ENDBRANCH   6   7
BRANCH   6  21
ATOM     21  CB  PHE A   4      38.564  32.381  31.717  0.00  0.00    +0.055 C 
BRANCH  21  22
ATOM     22  CG  PHE A   4      39.507  33.526  31.949  0.00  0.00    -0.020 A 
ATOM     23  CD2 PHE A   4      39.745  33.993  33.233  0.00  0.00    -0.004 A 
ATOM     24  CE2 PHE A   4      40.668  35.052  33.465  0.00  0.00    -0.000 A 
ATOM     25  CZ  PHE A   4      41.358  35.630  32.386  0.00  0.00    -0.000 A 
ATOM     26  CE1 PHE A   4      41.103  35.168  31.073  0.00  0.00    -0.000 A 
ATOM     27  CD1 PHE A   4      40.184  34.109  30.876  0.00  0.00    -0.004 A 
ENDBRANCH  21  22
ENDBRANCH   6  21
ENDBRANCH   3   6
ENDBRANCH   1   2
BRANCH   1  29
ATOM     28  C   ASP A   2      35.303  29.472  31.483  0.00  0.00    +0.241 C 
ATOM     29  N   ASN A   3      36.068  28.451  31.099  0.00  0.00    -0.297 N 
ATOM     30  H   ASN A   3      35.994  27.548  31.610  0.00  0.00    +0.150 HD
ATOM     31  O   ASP A   2      35.292  30.578  30.905  0.00  0.00    -0.273 OA
BRANCH  28  32
ATOM     32  CA  ASP A   2      34.426  29.235  32.706  0.00  0.00    +0.160 C 
BRANCH  32  35
ATOM     33  C   ASN A   1      34.869  30.316  34.740  0.00  0.00    +0.239 C 
ATOM     34  O   ASN A   1      35.160  29.259  35.265  0.00  0.00    -0.274 OA
ATOM     35  N   ASP A   2      34.552  30.413  33.464  0.00  0.00    -0.297 N 
ATOM     36  H   ASP A   2      34.398  31.344  33.026  0.00  0.00    +0.150 HD
BRANCH  33  37
ATOM     37  CA  ASN A   1      34.986  31.581  35.510  0.00  0.00    +0.154 C 
BRANCH  37  38
ATOM     38  N   ASN A   1      34.388  31.440  36.839  0.00  0.00    -0.238 NA
ATOM     39  H   ASN A   1      34.967  31.154  37.655  0.00  0.00    +0.142 HD
ENDBRANCH  37  38
BRANCH  37  40
ATOM     40  CB  ASN A   1      36.479  31.814  35.525  0.00  0.00    +0.111 C 
BRANCH  40  41
ATOM     41  CG  ASN A   1      36.930  32.347  36.758  0.00  0.00    +0.221 C 
ATOM     42  ND2 ASN A   1      37.008  31.506  37.844  0.00  0.00    -0.329 N 
ATOM     43 HD21 ASN A   1      37.298  31.879  38.771  0.00  0.00    +0.145 HD
ATOM     44 HD22 ASN A   1      36.777  30.498  37.738  0.00  0.00    +0.145 HD
ATOM     45  OD1 ASN A   1      37.190  33.563  36.803  0.00  0.00    -0.275 OA
ENDBRANCH  40  41
ENDBRANCH  37  40
ENDBRANCH  33  37
ENDBRANCH  32  35
BRANCH  32  46
ATOM     46  CB  ASP A   2      32.943  29.121  32.300  0.00  0.00    +0.143 C 
BRANCH  46  47
ATOM     47  CG  ASP A   2      32.548  27.695  31.814  0.00  0.00    +0.367 C 
ATOM     48  OD2 ASP A   2      33.065  26.616  32.310  0.00  0.00    -0.246 OA
ATOM     49  OD1 ASP A   2      31.681  27.688  30.904  0.00  0.00    -0.246 OA
ENDBRANCH  46  47
ENDBRANCH  32  46
ENDBRANCH  28  32
ENDBRANCH   1  29
BRANCH   1  50
ATOM     50  CB  ASN A   3      36.248  28.671  28.664  0.00  0.00    +0.114 C 
BRANCH  50  51
ATOM     51  CG  ASN A   3      35.920  27.308  28.065  0.00  0.00    +0.222 C 
ATOM     52  OD1 ASN A   3      36.796  26.477  27.869  0.00  0.00    -0.275 OA
ATOM     53  ND2 ASN A   3      34.671  27.069  27.820  0.00  0.00    -0.329 N 
ATOM     54 HD21 ASN A   3      33.956  27.802  28.000  0.00  0.00    +0.145 HD
ATOM     55 HD22 ASN A   3      34.383  26.144  27.443  0.00  0.00    +0.145 HD
ENDBRANCH  50  51
ENDBRANCH   1  50
TORSDOF 20
REMARK  Name = ../refined-set-2016/4el5/4el5_pocket.pdb
REMARK  248 active torsions:
REMARK  status: ('A' for Active; 'I' for Inactive)
REMARK    1  A    between atoms: _1  and  _3
REMARK    2  A    between atoms: _3  and  _4
REMARK    3  A    between atoms: _3  and  _6
REMARK    4  A    between atoms: _6  and  _7
REMARK    5  A    between atoms: _12  and  _13
REMARK    6  A    between atoms: _15  and  _17
REMARK    7  A    between atoms: _17  and  _18
REMARK    8  A    between atoms: _17  and  _20
REMARK    9  A    between atoms: _20  and  _21
REMARK   10  A    between atoms: _21  and  _22
REMARK   11  A    between atoms: _25  and  _27
REMARK   12  A    between atoms: _27  and  _28
REMARK   13  A    between atoms: _27  and  _30
REMARK   14  A    between atoms: _30  and  _31
REMARK   15  A    between atoms: _36  and  _38
REMARK   16  A    between atoms: _38  and  _39
REMARK   17  A    between atoms: _41  and  _43
REMARK   18  A    between atoms: _43  and  _44
REMARK   19  A    between atoms: _46  and  _48
REMARK   20  A    between atoms: _48  and  _49
REMARK   21  A    between atoms: _48  and  _51
REMARK   22  A    between atoms: _51  and  _52
REMARK   23  A    between atoms: _55  and  _57
REMARK   24  A    between atoms: _57  and  _58
REMARK   25  A    between atoms: _60  and  _62
REMARK   26  A    between atoms: _62  and  _63
REMARK   27  A    between atoms: _62  and  _65
REMARK   28  A    between atoms: _65  and  _66
REMARK   29  A    between atoms: _66  and  _67
REMARK   30  A    between atoms: _67  and  _68
REMARK   31  A    between atoms: _77  and  _79
REMARK   32  A    between atoms: _79  and  _80
REMARK   33  A    between atoms: _79  and  _82
REMARK   34  A    between atoms: _82  and  _83
REMARK   35  A    between atoms: _86  and  _88
REMARK   36  A    between atoms: _88  and  _89
REMARK   37  A    between atoms: _92  and  _94
REMARK   38  A    between atoms: _94  and  _95
REMARK   39  A    between atoms: _94  and  _97
REMARK   40  A    between atoms: _97  and  _98
REMARK   41  A    between atoms: _104  and  _106
REMARK   42  A    between atoms: _106  and  _107
REMARK   43  A    between atoms: _106  and  _109
REMARK   44  A    between atoms: _109  and  _110
REMARK   45  A    between atoms: _115  and  _117
REMARK   46  A    between atoms: _117  and  _118
REMARK   47  A    between atoms: _117  and  _120
REMARK   48  A    between atoms: _120  and  _121
REMARK   49  A    between atoms: _124  and  _126
REMARK   50  A    between atoms: _126  and  _127
REMARK   51  A    between atoms: _126  and  _129
REMARK   52  A    between atoms: _129  and  _130
REMARK   53  A    between atoms: _135  and  _137
REMARK   54  A    between atoms: _137  and  _138
REMARK   55  A    between atoms: _137  and  _140
REMARK   56  A    between atoms: _140  and  _141
REMARK   57  A    between atoms: _147  and  _149
REMARK   58  A    between atoms: _149  and  _150
REMARK   59  A    between atoms: _149  and  _152
REMARK   60  A    between atoms: _152  and  _153
REMARK   61  A    between atoms: _159  and  _161
REMARK   62  A    between atoms: _161  and  _162
REMARK   63  A    between atoms: _161  and  _164
REMARK   64  A    between atoms: _164  and  _165
REMARK   65  A    between atoms: _165  and  _166
REMARK   66  A    between atoms: _166  and  _167
REMARK   67  A    between atoms: _176  and  _178
REMARK   68  A    between atoms: _178  and  _179
REMARK   69  A    between atoms: _178  and  _181
REMARK   70  A    between atoms: _181  and  _182
REMARK   71  A    between atoms: _187  and  _189
REMARK   72  A    between atoms: _189  and  _190
REMARK   73  A    between atoms: _189  and  _192
REMARK   74  A    between atoms: _192  and  _193
REMARK   75  A    between atoms: _196  and  _198
REMARK   76  A    between atoms: _198  and  _199
REMARK   77  A    between atoms: _198  and  _201
REMARK   78  A    between atoms: _201  and  _202
REMARK   79  A    between atoms: _205  and  _207
REMARK   80  A    between atoms: _207  and  _208
REMARK   81  A    between atoms: _207  and  _210
REMARK   82  A    between atoms: _210  and  _211
REMARK   83  A    between atoms: _216  and  _218
REMARK   84  A    between atoms: _218  and  _219
REMARK   85  A    between atoms: _218  and  _221
REMARK   86  A    between atoms: _221  and  _222
REMARK   87  A    between atoms: _227  and  _228
REMARK   88  A    between atoms: _230  and  _232
REMARK   89  A    between atoms: _232  and  _233
REMARK   90  A    between atoms: _232  and  _235
REMARK   91  A    between atoms: _235  and  _236
REMARK   92  A    between atoms: _239  and  _241
REMARK   93  A    between atoms: _241  and  _242
REMARK   94  A    between atoms: _241  and  _244
REMARK   95  A    between atoms: _244  and  _245
REMARK   96  A    between atoms: _250  and  _252
REMARK   97  A    between atoms: _252  and  _253
REMARK   98  A    between atoms: _252  and  _255
REMARK   99  A    between atoms: _255  and  _256
REMARK  100  A    between atoms: _261  and  _263
REMARK  101  A    between atoms: _263  and  _264
REMARK  102  A    between atoms: _263  and  _266
REMARK  103  A    between atoms: _266  and  _267
REMARK  104  A    between atoms: _270  and  _272
REMARK  105  A    between atoms: _272  and  _273
REMARK  106  A    between atoms: _272  and  _275
REMARK  107  A    between atoms: _278  and  _280
REMARK  108  A    between atoms: _280  and  _281
REMARK  109  A    between atoms: _280  and  _283
REMARK  110  A    between atoms: _283  and  _284
REMARK  111  A    between atoms: _287  and  _289
REMARK  112  A    between atoms: _289  and  _290
REMARK  113  A    between atoms: _289  and  _292
REMARK  114  A    between atoms: _292  and  _293
REMARK  115  A    between atoms: _293  and  _294
REMARK  116  A    between atoms: _297  and  _299
REMARK  117  A    between atoms: _299  and  _300
REMARK  118  A    between atoms: _303  and  _305
REMARK  119  A    between atoms: _305  and  _306
REMARK  120  A    between atoms: _305  and  _308
REMARK  121  A    between atoms: _308  and  _309
REMARK  122  A    between atoms: _312  and  _314
REMARK  123  A    between atoms: _314  and  _315
REMARK  124  A    between atoms: _314  and  _317
REMARK  125  A    between atoms: _317  and  _318
REMARK  126  A    between atoms: _318  and  _319
REMARK  127  A    between atoms: _322  and  _324
REMARK  128  A    between atoms: _324  and  _325
REMARK  129  A    between atoms: _324  and  _327
REMARK  130  A    between atoms: _327  and  _328
REMARK  131  A    between atoms: _333  and  _335
REMARK  132  A    between atoms: _335  and  _336
REMARK  133  A    between atoms: _338  and  _340
REMARK  134  A    between atoms: _340  and  _341
REMARK  135  A    between atoms: _340  and  _343
REMARK  136  A    between atoms: _346  and  _348
REMARK  137  A    between atoms: _348  and  _349
REMARK  138  A    between atoms: _352  and  _354
REMARK  139  A    between atoms: _354  and  _355
REMARK  140  A    between atoms: _354  and  _357
REMARK  141  A    between atoms: _357  and  _358
REMARK  142  A    between atoms: _363  and  _365
REMARK  143  A    between atoms: _365  and  _366
REMARK  144  A    between atoms: _365  and  _368
REMARK  145  A    between atoms: _368  and  _369
REMARK  146  A    between atoms: _369  and  _370
REMARK  147  A    between atoms: _370  and  _371
REMARK  148  A    between atoms: _371  and  _372
REMARK  149  A    between atoms: _376  and  _378
REMARK  150  A    between atoms: _378  and  _379
REMARK  151  A    between atoms: _378  and  _381
REMARK  152  A    between atoms: _381  and  _382
REMARK  153  A    between atoms: _385  and  _387
REMARK  154  A    between atoms: _387  and  _388
REMARK  155  A    between atoms: _387  and  _390
REMARK  156  A    between atoms: _390  and  _391
REMARK  157  A    between atoms: _396  and  _398
REMARK  158  A    between atoms: _398  and  _399
REMARK  159  A    between atoms: _401  and  _403
REMARK  160  A    between atoms: _403  and  _404
REMARK  161  A    between atoms: _403  and  _406
REMARK  162  A    between atoms: _406  and  _407
REMARK  163  A    between atoms: _407  and  _408
REMARK  164  A    between atoms: _408  and  _409
REMARK  165  A    between atoms: _409  and  _410
REMARK  166  A    between atoms: _414  and  _416
REMARK  167  A    between atoms: _416  and  _417
REMARK  168  A    between atoms: _416  and  _419
REMARK  169  A    between atoms: _419  and  _420
REMARK  170  A    between atoms: _420  and  _421
REMARK  171  A    between atoms: _421  and  _422
REMARK  172  A    between atoms: _431  and  _433
REMARK  173  A    between atoms: _433  and  _434
REMARK  174  A    between atoms: _433  and  _436
REMARK  175  A    between atoms: _436  and  _437
REMARK  176  A    between atoms: _442  and  _444
REMARK  177  A    between atoms: _444  and  _445
REMARK  178  A    between atoms: _444  and  _447
REMARK  179  A    between atoms: _447  and  _448
REMARK  180  A    between atoms: _453  and  _454
REMARK  181  A    between atoms: _456  and  _458
REMARK  182  A    between atoms: _458  and  _459
REMARK  183  A    between atoms: _458  and  _461
REMARK  184  A    between atoms: _461  and  _462
REMARK  185  A    between atoms: _462  and  _463
REMARK  186  A    between atoms: _463  and  _464
REMARK  187  A    between atoms: _464  and  _465
REMARK  188  A    between atoms: _469  and  _471
REMARK  189  A    between atoms: _471  and  _472
REMARK  190  A    between atoms: _471  and  _474
REMARK  191  A    between atoms: _474  and  _475
REMARK  192  A    between atoms: _477  and  _479
REMARK  193  A    between atoms: _479  and  _480
REMARK  194  A    between atoms: _479  and  _482
REMARK  195  A    between atoms: _482  and  _483
REMARK  196  A    between atoms: _486  and  _488
REMARK  197  A    between atoms: _488  and  _489
REMARK  198  A    between atoms: _488  and  _491
REMARK  199  A    between atoms: _491  and  _492
REMARK  200  A    between atoms: _492  and  _493
REMARK  201  A    between atoms: _496  and  _498
REMARK  202  A    between atoms: _498  and  _499
REMARK  203  A    between atoms: _502  and  _504
REMARK  204  A    between atoms: _504  and  _505
REMARK  205  A    between atoms: _504  and  _507
REMARK  206  A    between atoms: _507  and  _508
REMARK  207  A    between atoms: _510  and  _512
REMARK  208  A    between atoms: _512  and  _513
REMARK  209  A    between atoms: _515  and  _517
REMARK  210  A    between atoms: _517  and  _518
REMARK  211  A    between atoms: _517  and  _520
REMARK  212  A    between atoms: _520  and  _521
REMARK  213  A    between atoms: _524  and  _526
REMARK  214  A    between atoms: _526  and  _527
REMARK  215  A    between atoms: _529  and  _531
REMARK  216  A    between atoms: _531  and  _532
REMARK  217  A    between atoms: _531  and  _534
REMARK  218  A    between atoms: _534  and  _535
REMARK  219  A    between atoms: _540  and  _542
REMARK  220  A    between atoms: _542  and  _543
REMARK  221  A    between atoms: _542  and  _545
REMARK  222  A    between atoms: _545  and  _546
REMARK  223  A    between atoms: _546  and  _547
REMARK  224  A    between atoms: _554  and  _555
REMARK  225  A    between atoms: _555  and  _571
REMARK  226  A    between atoms: _556  and  _558
REMARK  227  A    between atoms: _558  and  _559
REMARK  228  A    between atoms: _559  and  _560
REMARK  229  A    between atoms: _564  and  _566
REMARK  230  A    between atoms: _566  and  _567
REMARK  231  A    between atoms: _566  and  _574
REMARK  232  A    between atoms: _567  and  _568
REMARK  233  A    between atoms: _568  and  _569
REMARK  234  A    between atoms: _569  and  _570
REMARK  235  A    between atoms: _570  and  _571
REMARK  236  A    between atoms: _576  and  _578
REMARK  237  A    between atoms: _578  and  _579
REMARK  238  A    between atoms: _578  and  _581
REMARK  239  A    between atoms: _581  and  _582
REMARK  240  A    between atoms: _585  and  _587
REMARK  241  A    between atoms: _587  and  _588
REMARK  242  A    between atoms: _590  and  _592
REMARK  243  A    between atoms: _592  and  _593
REMARK  244  A    between atoms: _596  and  _598
REMARK  245  A    between atoms: _598  and  _599
REMARK  246  A    between atoms: _598  and  _601
REMARK  247  A    between atoms: _601  and  _602
REMARK  248  A    between atoms: _607  and  _608
REMARK                            x       y       z     vdW  Elec       q    Type
REMARK                         _______ _______ _______ _____ _____    ______ ____
ROOT
ATOM      1  NE  ARG A   1      39.338  25.799  40.266  0.00  0.00    -0.265 N 
ATOM      2  HE  ARG A   1      40.240  25.518  39.832  0.00  0.00    +0.259 HD
ATOM      3  CZ  ARG A   1      38.223  25.363  39.682  0.00  0.00    +0.342 C 
ATOM      4  NH2 ARG A   1      37.044  25.649  40.199  0.00  0.00    -0.292 N 
ATOM      5 HH21 ARG A   1      36.981  26.218  41.067  0.00  0.00    +0.255 HD
ATOM      6 HH22 ARG A   1      36.177  25.306  39.738  0.00  0.00    +0.255 HD
ATOM      7  NH1 ARG A   1      38.303  24.657  38.540  0.00  0.00    -0.292 N 
ATOM      8 HH11 ARG A   1      39.232  24.454  38.118  0.00  0.00    +0.255 HD
ATOM      9 HH12 ARG A   1      37.436  24.314  38.079  0.00  0.00    +0.255 HD
ENDROOT
BRANCH   1  10
ATOM     10  CD  ARG A   1      39.408  26.641  41.468  0.00  0.00    +0.174 C 
BRANCH  10  11
ATOM     11  CG  ARG A   1      40.825  27.288  41.549  0.00  0.00    +0.045 C 
BRANCH  11  12
ATOM     12  CB  ARG A   1      40.867  28.360  42.663  0.00  0.00    +0.029 C 
BRANCH  12  13
ATOM     13  CA  ARG A   1      40.872  27.745  44.064  0.00  0.00    +0.133 C 
BRANCH  13  14
ATOM     14  N   ARG A   1      41.276  28.742  45.050  0.00  0.00    -0.239 NA
ATOM     15  H   ARG A   1      41.666  29.658  44.749  0.00  0.00    +0.142 HD
ENDBRANCH  13  14
BRANCH  13  16
ATOM     16  C   ARG A   1      41.785  26.559  44.132  0.00  0.00    +0.224 C 
ATOM     17  O   ARG A   1      41.347  25.415  44.005  0.00  0.00    -0.287 OA
ENDBRANCH  13  16
ENDBRANCH  12  13
ENDBRANCH  11  12
ENDBRANCH  10  11
ENDBRANCH   1  10
TORSDOF 6
REMARK  Name = ../refined-set-2016/4el5/4el5_pocket.pdb
REMARK  248 active torsions:
REMARK  status: ('A' for Active; 'I' for Inactive)
REMARK    1  A    between atoms: _1  and  _3
REMARK    2  A    between atoms: _3  and  _4
REMARK    3  A    between atoms: _3  and  _6
REMARK    4  A    between atoms: _6  and  _7
REMARK    5  A    between atoms: _12  and  _13
REMARK    6  A    between atoms: _15  and  _17
REMARK    7  A    between atoms: _17  and  _18
REMARK    8  A    between atoms: _17  and  _20
REMARK    9  A    between atoms: _20  and  _21
REMARK   10  A    between atoms: _21  and  _22
REMARK   11  A    between atoms: _25  and  _27
REMARK   12  A    between atoms: _27  and  _28
REMARK   13  A    between atoms: _27  and  _30
REMARK   14  A    between atoms: _30  and  _31
REMARK   15  A    between atoms: _36  and  _38
REMARK   16  A    between atoms: _38  and  _39
REMARK   17  A    between atoms: _41  and  _43
REMARK   18  A    between atoms: _43  and  _44
REMARK   19  A    between atoms: _46  and  _48
REMARK   20  A    between atoms: _48  and  _49
REMARK   21  A    between atoms: _48  and  _51
REMARK   22  A    between atoms: _51  and  _52
REMARK   23  A    between atoms: _55  and  _57
REMARK   24  A    between atoms: _57  and  _58
REMARK   25  A    between atoms: _60  and  _62
REMARK   26  A    between atoms: _62  and  _63
REMARK   27  A    between atoms: _62  and  _65
REMARK   28  A    between atoms: _65  and  _66
REMARK   29  A    between atoms: _66  and  _67
REMARK   30  A    between atoms: _67  and  _68
REMARK   31  A    between atoms: _77  and  _79
REMARK   32  A    between atoms: _79  and  _80
REMARK   33  A    between atoms: _79  and  _82
REMARK   34  A    between atoms: _82  and  _83
REMARK   35  A    between atoms: _86  and  _88
REMARK   36  A    between atoms: _88  and  _89
REMARK   37  A    between atoms: _92  and  _94
REMARK   38  A    between atoms: _94  and  _95
REMARK   39  A    between atoms: _94  and  _97
REMARK   40  A    between atoms: _97  and  _98
REMARK   41  A    between atoms: _104  and  _106
REMARK   42  A    between atoms: _106  and  _107
REMARK   43  A    between atoms: _106  and  _109
REMARK   44  A    between atoms: _109  and  _110
REMARK   45  A    between atoms: _115  and  _117
REMARK   46  A    between atoms: _117  and  _118
REMARK   47  A    between atoms: _117  and  _120
REMARK   48  A    between atoms: _120  and  _121
REMARK   49  A    between atoms: _124  and  _126
REMARK   50  A    between atoms: _126  and  _127
REMARK   51  A    between atoms: _126  and  _129
REMARK   52  A    between atoms: _129  and  _130
REMARK   53  A    between atoms: _135  and  _137
REMARK   54  A    between atoms: _137  and  _138
REMARK   55  A    between atoms: _137  and  _140
REMARK   56  A    between atoms: _140  and  _141
REMARK   57  A    between atoms: _147  and  _149
REMARK   58  A    between atoms: _149  and  _150
REMARK   59  A    between atoms: _149  and  _152
REMARK   60  A    between atoms: _152  and  _153
REMARK   61  A    between atoms: _159  and  _161
REMARK   62  A    between atoms: _161  and  _162
REMARK   63  A    between atoms: _161  and  _164
REMARK   64  A    between atoms: _164  and  _165
REMARK   65  A    between atoms: _165  and  _166
REMARK   66  A    between atoms: _166  and  _167
REMARK   67  A    between atoms: _176  and  _178
REMARK   68  A    between atoms: _178  and  _179
REMARK   69  A    between atoms: _178  and  _181
REMARK   70  A    between atoms: _181  and  _182
REMARK   71  A    between atoms: _187  and  _189
REMARK   72  A    between atoms: _189  and  _190
REMARK   73  A    between atoms: _189  and  _192
REMARK   74  A    between atoms: _192  and  _193
REMARK   75  A    between atoms: _196  and  _198
REMARK   76  A    between atoms: _198  and  _199
REMARK   77  A    between atoms: _198  and  _201
REMARK   78  A    between atoms: _201  and  _202
REMARK   79  A    between atoms: _205  and  _207
REMARK   80  A    between atoms: _207  and  _208
REMARK   81  A    between atoms: _207  and  _210
REMARK   82  A    between atoms: _210  and  _211
REMARK   83  A    between atoms: _216  and  _218
REMARK   84  A    between atoms: _218  and  _219
REMARK   85  A    between atoms: _218  and  _221
REMARK   86  A    between atoms: _221  and  _222
REMARK   87  A    between atoms: _227  and  _228
REMARK   88  A    between atoms: _230  and  _232
REMARK   89  A    between atoms: _232  and  _233
REMARK   90  A    between atoms: _232  and  _235
REMARK   91  A    between atoms: _235  and  _236
REMARK   92  A    between atoms: _239  and  _241
REMARK   93  A    between atoms: _241  and  _242
REMARK   94  A    between atoms: _241  and  _244
REMARK   95  A    between atoms: _244  and  _245
REMARK   96  A    between atoms: _250  and  _252
REMARK   97  A    between atoms: _252  and  _253
REMARK   98  A    between atoms: _252  and  _255
REMARK   99  A    between atoms: _255  and  _256
REMARK  100  A    between atoms: _261  and  _263
REMARK  101  A    between atoms: _263  and  _264
REMARK  102  A    between atoms: _263  and  _266
REMARK  103  A    between atoms: _266  and  _267
REMARK  104  A    between atoms: _270  and  _272
REMARK  105  A    between atoms: _272  and  _273
REMARK  106  A    between atoms: _272  and  _275
REMARK  107  A    between atoms: _278  and  _280
REMARK  108  A    between atoms: _280  and  _281
REMARK  109  A    between atoms: _280  and  _283
REMARK  110  A    between atoms: _283  and  _284
REMARK  111  A    between atoms: _287  and  _289
REMARK  112  A    between atoms: _289  and  _290
REMARK  113  A    between atoms: _289  and  _292
REMARK  114  A    between atoms: _292  and  _293
REMARK  115  A    between atoms: _293  and  _294
REMARK  116  A    between atoms: _297  and  _299
REMARK  117  A    between atoms: _299  and  _300
REMARK  118  A    between atoms: _303  and  _305
REMARK  119  A    between atoms: _305  and  _306
REMARK  120  A    between atoms: _305  and  _308
REMARK  121  A    between atoms: _308  and  _309
REMARK  122  A    between atoms: _312  and  _314
REMARK  123  A    between atoms: _314  and  _315
REMARK  124  A    between atoms: _314  and  _317
REMARK  125  A    between atoms: _317  and  _318
REMARK  126  A    between atoms: _318  and  _319
REMARK  127  A    between atoms: _322  and  _324
REMARK  128  A    between atoms: _324  and  _325
REMARK  129  A    between atoms: _324  and  _327
REMARK  130  A    between atoms: _327  and  _328
REMARK  131  A    between atoms: _333  and  _335
REMARK  132  A    between atoms: _335  and  _336
REMARK  133  A    between atoms: _338  and  _340
REMARK  134  A    between atoms: _340  and  _341
REMARK  135  A    between atoms: _340  and  _343
REMARK  136  A    between atoms: _346  and  _348
REMARK  137  A    between atoms: _348  and  _349
REMARK  138  A    between atoms: _352  and  _354
REMARK  139  A    between atoms: _354  and  _355
REMARK  140  A    between atoms: _354  and  _357
REMARK  141  A    between atoms: _357  and  _358
REMARK  142  A    between atoms: _363  and  _365
REMARK  143  A    between atoms: _365  and  _366
REMARK  144  A    between atoms: _365  and  _368
REMARK  145  A    between atoms: _368  and  _369
REMARK  146  A    between atoms: _369  and  _370
REMARK  147  A    between atoms: _370  and  _371
REMARK  148  A    between atoms: _371  and  _372
REMARK  149  A    between atoms: _376  and  _378
REMARK  150  A    between atoms: _378  and  _379
REMARK  151  A    between atoms: _378  and  _381
REMARK  152  A    between atoms: _381  and  _382
REMARK  153  A    between atoms: _385  and  _387
REMARK  154  A    between atoms: _387  and  _388
REMARK  155  A    between atoms: _387  and  _390
REMARK  156  A    between atoms: _390  and  _391
REMARK  157  A    between atoms: _396  and  _398
REMARK  158  A    between atoms: _398  and  _399
REMARK  159  A    between atoms: _401  and  _403
REMARK  160  A    between atoms: _403  and  _404
REMARK  161  A    between atoms: _403  and  _406
REMARK  162  A    between atoms: _406  and  _407
REMARK  163  A    between atoms: _407  and  _408
REMARK  164  A    between atoms: _408  and  _409
REMARK  165  A    between atoms: _409  and  _410
REMARK  166  A    between atoms: _414  and  _416
REMARK  167  A    between atoms: _416  and  _417
REMARK  168  A    between atoms: _416  and  _419
REMARK  169  A    between atoms: _419  and  _420
REMARK  170  A    between atoms: _420  and  _421
REMARK  171  A    between atoms: _421  and  _422
REMARK  172  A    between atoms: _431  and  _433
REMARK  173  A    between atoms: _433  and  _434
REMARK  174  A    between atoms: _433  and  _436
REMARK  175  A    between atoms: _436  and  _437
REMARK  176  A    between atoms: _442  and  _444
REMARK  177  A    between atoms: _444  and  _445
REMARK  178  A    between atoms: _444  and  _447
REMARK  179  A    between atoms: _447  and  _448
REMARK  180  A    between atoms: _453  and  _454
REMARK  181  A    between atoms: _456  and  _458
REMARK  182  A    between atoms: _458  and  _459
REMARK  183  A    between atoms: _458  and  _461
REMARK  184  A    between atoms: _461  and  _462
REMARK  185  A    between atoms: _462  and  _463
REMARK  186  A    between atoms: _463  and  _464
REMARK  187  A    between atoms: _464  and  _465
REMARK  188  A    between atoms: _469  and  _471
REMARK  189  A    between atoms: _471  and  _472
REMARK  190  A    between atoms: _471  and  _474
REMARK  191  A    between atoms: _474  and  _475
REMARK  192  A    between atoms: _477  and  _479
REMARK  193  A    between atoms: _479  and  _480
REMARK  194  A    between atoms: _479  and  _482
REMARK  195  A    between atoms: _482  and  _483
REMARK  196  A    between atoms: _486  and  _488
REMARK  197  A    between atoms: _488  and  _489
REMARK  198  A    between atoms: _488  and  _491
REMARK  199  A    between atoms: _491  and  _492
REMARK  200  A    between atoms: _492  and  _493
REMARK  201  A    between atoms: _496  and  _498
REMARK  202  A    between atoms: _498  and  _499
REMARK  203  A    between atoms: _502  and  _504
REMARK  204  A    between atoms: _504  and  _505
REMARK  205  A    between atoms: _504  and  _507
REMARK  206  A    between atoms: _507  and  _508
REMARK  207  A    between atoms: _510  and  _512
REMARK  208  A    between atoms: _512  and  _513
REMARK  209  A    between atoms: _515  and  _517
REMARK  210  A    between atoms: _517  and  _518
REMARK  211  A    between atoms: _517  and  _520
REMARK  212  A    between atoms: _520  and  _521
REMARK  213  A    between atoms: _524  and  _526
REMARK  214  A    between atoms: _526  and  _527
REMARK  215  A    between atoms: _529  and  _531
REMARK  216  A    between atoms: _531  and  _532
REMARK  217  A    between atoms: _531  and  _534
REMARK  218  A    between atoms: _534  and  _535
REMARK  219  A    between atoms: _540  and  _542
REMARK  220  A    between atoms: _542  and  _543
REMARK  221  A    between atoms: _542  and  _545
REMARK  222  A    between atoms: _545  and  _546
REMARK  223  A    between atoms: _546  and  _547
REMARK  224  A    between atoms: _554  and  _555
REMARK  225  A    between atoms: _555  and  _571
REMARK  226  A    between atoms: _556  and  _558
REMARK  227  A    between atoms: _558  and  _559
REMARK  228  A    between atoms: _559  and  _560
REMARK  229  A    between atoms: _564  and  _566
REMARK  230  A    between atoms: _566  and  _567
REMARK  231  A    between atoms: _566  and  _574
REMARK  232  A    between atoms: _567  and  _568
REMARK  233  A    between atoms: _568  and  _569
REMARK  234  A    between atoms: _569  and  _570
REMARK  235  A    between atoms: _570  and  _571
REMARK  236  A    between atoms: _576  and  _578
REMARK  237  A    between atoms: _578  and  _579
REMARK  238  A    between atoms: _578  and  _581
REMARK  239  A    between atoms: _581  and  _582
REMARK  240  A    between atoms: _585  and  _587
REMARK  241  A    between atoms: _587  and  _588
REMARK  242  A    between atoms: _590  and  _592
REMARK  243  A    between atoms: _592  and  _593
REMARK  244  A    between atoms: _596  and  _598
REMARK  245  A    between atoms: _598  and  _599
REMARK  246  A    between atoms: _598  and  _601
REMARK  247  A    between atoms: _601  and  _602
REMARK  248  A    between atoms: _607  and  _608
REMARK                            x       y       z     vdW  Elec       q    Type
REMARK                         _______ _______ _______ _____ _____    ______ ____
ROOT
ATOM      1  C   ASP A   2      41.165  18.271  33.860  0.00  0.00    +0.241 C 
ATOM      2  O   ASP A   2      41.361  17.236  34.443  0.00  0.00    -0.273 OA
ATOM      3  N   THR A   3      41.944  19.344  34.034  0.00  0.00    -0.295 N 
ATOM      4  H   THR A   3      41.704  20.240  33.564  0.00  0.00    +0.150 HD
ENDROOT
BRANCH   1   5
ATOM      5  CA  ASP A   2      40.012  18.313  32.847  0.00  0.00    +0.160 C 
BRANCH   5   8
ATOM      6  C   ASN A   1      38.300  17.206  34.250  0.00  0.00    +0.239 C 
ATOM      7  O   ASN A   1      38.219  18.120  35.072  0.00  0.00    -0.274 OA
ATOM      8  N   ASP A   2      39.079  17.261  33.152  0.00  0.00    -0.297 N 
ATOM      9  H   ASP A   2      38.999  16.480  32.470  0.00  0.00    +0.150 HD
BRANCH   6  10
ATOM     10  CA  ASN A   1      37.530  15.884  34.447  0.00  0.00    +0.154 C 
BRANCH  10  11
ATOM     11  N   ASN A   1      38.312  15.020  35.243  0.00  0.00    -0.238 NA
ATOM     12  H   ASN A   1      38.148  14.999  36.270  0.00  0.00    +0.142 HD
ENDBRANCH  10  11
BRANCH  10  13
ATOM     13  CB  ASN A   1      36.109  16.066  35.067  0.00  0.00    +0.111 C 
BRANCH  13  14
ATOM     14  CG  ASN A   1      35.094  16.705  34.098  0.00  0.00    +0.221 C 
ATOM     15  ND2 ASN A   1      34.062  17.400  34.652  0.00  0.00    -0.329 N 
ATOM     16 HD21 ASN A   1      33.985  17.481  35.686  0.00  0.00    +0.145 HD
ATOM     17 HD22 ASN A   1      33.350  17.850  34.041  0.00  0.00    +0.145 HD
ATOM     18  OD1 ASN A   1      35.220  16.585  32.852  0.00  0.00    -0.275 OA
ENDBRANCH  13  14
ENDBRANCH  10  13
ENDBRANCH   6  10
ENDBRANCH   5   8
BRANCH   5  19
ATOM     19  CB  ASP A   2      39.417  19.710  32.687  0.00  0.00    +0.143 C 
BRANCH  19  20
ATOM     20  CG  ASP A   2      40.307  20.570  31.795  0.00  0.00    +0.367 C 
ATOM     21  OD2 ASP A   2      41.407  20.908  32.248  0.00  0.00    -0.246 OA
ATOM     22  OD1 ASP A   2      39.967  20.822  30.611  0.00  0.00    -0.246 OA
ENDBRANCH  19  20
ENDBRANCH   5  19
ENDBRANCH   1   5
BRANCH   3  23
ATOM     23  CA  THR A   3      43.133  19.262  34.883  0.00  0.00    +0.176 C 
BRANCH  23  24
ATOM     24  C   THR A   3      42.712  19.694  36.329  0.00  0.00    +0.243 C 
ATOM     25  O   THR A   3      43.553  19.724  37.222  0.00  0.00    -0.273 OA
ATOM     26  N   HIS A   4      41.457  20.072  36.543  0.00  0.00    -0.298 N 
ATOM     27  H   HIS A   4      40.743  19.991  35.791  0.00  0.00    +0.150 HD
BRANCH  26  28
ATOM     28  CA  HIS A   4      41.094  20.613  37.878  0.00  0.00    +0.143 C 
BRANCH  28  29
ATOM     29  C   HIS A   4      41.477  19.638  39.016  0.00  0.00    +0.227 C 
ATOM     30  O   HIS A   4      41.998  20.110  40.043  0.00  0.00    -0.286 OA
ENDBRANCH  28  29
BRANCH  28  31
ATOM     31  CB  HIS A   4      39.602  20.985  37.965  0.00  0.00    +0.075 C 
BRANCH  31  32
ATOM     32  CG  HIS A   4      39.155  21.923  36.875  0.00  0.00    +0.082 A 
ATOM     33  ND1 HIS A   4      37.834  22.052  36.506  0.00  0.00    -0.227 NA
ATOM     34  CE1 HIS A   4      37.747  22.950  35.536  0.00  0.00    +0.199 A 
ATOM     35  NE2 HIS A   4      38.965  23.398  35.256  0.00  0.00    -0.221 NA
ATOM     36  CD2 HIS A   4      39.864  22.740  36.046  0.00  0.00    +0.115 A 
ENDBRANCH  31  32
ENDBRANCH  28  31
ENDBRANCH  26  28
ENDBRANCH  23  24
BRANCH  23  37
ATOM     37  CB  THR A   3      44.300  20.221  34.432  0.00  0.00    +0.137 C 
ATOM     38  CG2 THR A   3      44.905  19.772  33.124  0.00  0.00    +0.034 C 
BRANCH  37  39
ATOM     39  OG1 THR A   3      43.799  21.533  34.232  0.00  0.00    -0.382 OA
ATOM     40  HG1 THR A   3      43.409  21.869  35.078  0.00  0.00    +0.210 HD
ENDBRANCH  37  39
ENDBRANCH  23  37
ENDBRANCH   3  23
TORSDOF 16
REMARK  Name = ../refined-set-2016/4el5/4el5_pocket.pdb
REMARK  248 active torsions:
REMARK  status: ('A' for Active; 'I' for Inactive)
REMARK    1  A    between atoms: _1  and  _3
REMARK    2  A    between atoms: _3  and  _4
REMARK    3  A    between atoms: _3  and  _6
REMARK    4  A    between atoms: _6  and  _7
REMARK    5  A    between atoms: _12  and  _13
REMARK    6  A    between atoms: _15  and  _17
REMARK    7  A    between atoms: _17  and  _18
REMARK    8  A    between atoms: _17  and  _20
REMARK    9  A    between atoms: _20  and  _21
REMARK   10  A    between atoms: _21  and  _22
REMARK   11  A    between atoms: _25  and  _27
REMARK   12  A    between atoms: _27  and  _28
REMARK   13  A    between atoms: _27  and  _30
REMARK   14  A    between atoms: _30  and  _31
REMARK   15  A    between atoms: _36  and  _38
REMARK   16  A    between atoms: _38  and  _39
REMARK   17  A    between atoms: _41  and  _43
REMARK   18  A    between atoms: _43  and  _44
REMARK   19  A    between atoms: _46  and  _48
REMARK   20  A    between atoms: _48  and  _49
REMARK   21  A    between atoms: _48  and  _51
REMARK   22  A    between atoms: _51  and  _52
REMARK   23  A    between atoms: _55  and  _57
REMARK   24  A    between atoms: _57  and  _58
REMARK   25  A    between atoms: _60  and  _62
REMARK   26  A    between atoms: _62  and  _63
REMARK   27  A    between atoms: _62  and  _65
REMARK   28  A    between atoms: _65  and  _66
REMARK   29  A    between atoms: _66  and  _67
REMARK   30  A    between atoms: _67  and  _68
REMARK   31  A    between atoms: _77  and  _79
REMARK   32  A    between atoms: _79  and  _80
REMARK   33  A    between atoms: _79  and  _82
REMARK   34  A    between atoms: _82  and  _83
REMARK   35  A    between atoms: _86  and  _88
REMARK   36  A    between atoms: _88  and  _89
REMARK   37  A    between atoms: _92  and  _94
REMARK   38  A    between atoms: _94  and  _95
REMARK   39  A    between atoms: _94  and  _97
REMARK   40  A    between atoms: _97  and  _98
REMARK   41  A    between atoms: _104  and  _106
REMARK   42  A    between atoms: _106  and  _107
REMARK   43  A    between atoms: _106  and  _109
REMARK   44  A    between atoms: _109  and  _110
REMARK   45  A    between atoms: _115  and  _117
REMARK   46  A    between atoms: _117  and  _118
REMARK   47  A    between atoms: _117  and  _120
REMARK   48  A    between atoms: _120  and  _121
REMARK   49  A    between atoms: _124  and  _126
REMARK   50  A    between atoms: _126  and  _127
REMARK   51  A    between atoms: _126  and  _129
REMARK   52  A    between atoms: _129  and  _130
REMARK   53  A    between atoms: _135  and  _137
REMARK   54  A    between atoms: _137  and  _138
REMARK   55  A    between atoms: _137  and  _140
REMARK   56  A    between atoms: _140  and  _141
REMARK   57  A    between atoms: _147  and  _149
REMARK   58  A    between atoms: _149  and  _150
REMARK   59  A    between atoms: _149  and  _152
REMARK   60  A    between atoms: _152  and  _153
REMARK   61  A    between atoms: _159  and  _161
REMARK   62  A    between atoms: _161  and  _162
REMARK   63  A    between atoms: _161  and  _164
REMARK   64  A    between atoms: _164  and  _165
REMARK   65  A    between atoms: _165  and  _166
REMARK   66  A    between atoms: _166  and  _167
REMARK   67  A    between atoms: _176  and  _178
REMARK   68  A    between atoms: _178  and  _179
REMARK   69  A    between atoms: _178  and  _181
REMARK   70  A    between atoms: _181  and  _182
REMARK   71  A    between atoms: _187  and  _189
REMARK   72  A    between atoms: _189  and  _190
REMARK   73  A    between atoms: _189  and  _192
REMARK   74  A    between atoms: _192  and  _193
REMARK   75  A    between atoms: _196  and  _198
REMARK   76  A    between atoms: _198  and  _199
REMARK   77  A    between atoms: _198  and  _201
REMARK   78  A    between atoms: _201  and  _202
REMARK   79  A    between atoms: _205  and  _207
REMARK   80  A    between atoms: _207  and  _208
REMARK   81  A    between atoms: _207  and  _210
REMARK   82  A    between atoms: _210  and  _211
REMARK   83  A    between atoms: _216  and  _218
REMARK   84  A    between atoms: _218  and  _219
REMARK   85  A    between atoms: _218  and  _221
REMARK   86  A    between atoms: _221  and  _222
REMARK   87  A    between atoms: _227  and  _228
REMARK   88  A    between atoms: _230  and  _232
REMARK   89  A    between atoms: _232  and  _233
REMARK   90  A    between atoms: _232  and  _235
REMARK   91  A    between atoms: _235  and  _236
REMARK   92  A    between atoms: _239  and  _241
REMARK   93  A    between atoms: _241  and  _242
REMARK   94  A    between atoms: _241  and  _244
REMARK   95  A    between atoms: _244  and  _245
REMARK   96  A    between atoms: _250  and  _252
REMARK   97  A    between atoms: _252  and  _253
REMARK   98  A    between atoms: _252  and  _255
REMARK   99  A    between atoms: _255  and  _256
REMARK  100  A    between atoms: _261  and  _263
REMARK  101  A    between atoms: _263  and  _264
REMARK  102  A    between atoms: _263  and  _266
REMARK  103  A    between atoms: _266  and  _267
REMARK  104  A    between atoms: _270  and  _272
REMARK  105  A    between atoms: _272  and  _273
REMARK  106  A    between atoms: _272  and  _275
REMARK  107  A    between atoms: _278  and  _280
REMARK  108  A    between atoms: _280  and  _281
REMARK  109  A    between atoms: _280  and  _283
REMARK  110  A    between atoms: _283  and  _284
REMARK  111  A    between atoms: _287  and  _289
REMARK  112  A    between atoms: _289  and  _290
REMARK  113  A    between atoms: _289  and  _292
REMARK  114  A    between atoms: _292  and  _293
REMARK  115  A    between atoms: _293  and  _294
REMARK  116  A    between atoms: _297  and  _299
REMARK  117  A    between atoms: _299  and  _300
REMARK  118  A    between atoms: _303  and  _305
REMARK  119  A    between atoms: _305  and  _306
REMARK  120  A    between atoms: _305  and  _308
REMARK  121  A    between atoms: _308  and  _309
REMARK  122  A    between atoms: _312  and  _314
REMARK  123  A    between atoms: _314  and  _315
REMARK  124  A    between atoms: _314  and  _317
REMARK  125  A    between atoms: _317  and  _318
REMARK  126  A    between atoms: _318  and  _319
REMARK  127  A    between atoms: _322  and  _324
REMARK  128  A    between atoms: _324  and  _325
REMARK  129  A    between atoms: _324  and  _327
REMARK  130  A    between atoms: _327  and  _328
REMARK  131  A    between atoms: _333  and  _335
REMARK  132  A    between atoms: _335  and  _336
REMARK  133  A    between atoms: _338  and  _340
REMARK  134  A    between atoms: _340  and  _341
REMARK  135  A    between atoms: _340  and  _343
REMARK  136  A    between atoms: _346  and  _348
REMARK  137  A    between atoms: _348  and  _349
REMARK  138  A    between atoms: _352  and  _354
REMARK  139  A    between atoms: _354  and  _355
REMARK  140  A    between atoms: _354  and  _357
REMARK  141  A    between atoms: _357  and  _358
REMARK  142  A    between atoms: _363  and  _365
REMARK  143  A    between atoms: _365  and  _366
REMARK  144  A    between atoms: _365  and  _368
REMARK  145  A    between atoms: _368  and  _369
REMARK  146  A    between atoms: _369  and  _370
REMARK  147  A    between atoms: _370  and  _371
REMARK  148  A    between atoms: _371  and  _372
REMARK  149  A    between atoms: _376  and  _378
REMARK  150  A    between atoms: _378  and  _379
REMARK  151  A    between atoms: _378  and  _381
REMARK  152  A    between atoms: _381  and  _382
REMARK  153  A    between atoms: _385  and  _387
REMARK  154  A    between atoms: _387  and  _388
REMARK  155  A    between atoms: _387  and  _390
REMARK  156  A    between atoms: _390  and  _391
REMARK  157  A    between atoms: _396  and  _398
REMARK  158  A    between atoms: _398  and  _399
REMARK  159  A    between atoms: _401  and  _403
REMARK  160  A    between atoms: _403  and  _404
REMARK  161  A    between atoms: _403  and  _406
REMARK  162  A    between atoms: _406  and  _407
REMARK  163  A    between atoms: _407  and  _408
REMARK  164  A    between atoms: _408  and  _409
REMARK  165  A    between atoms: _409  and  _410
REMARK  166  A    between atoms: _414  and  _416
REMARK  167  A    between atoms: _416  and  _417
REMARK  168  A    between atoms: _416  and  _419
REMARK  169  A    between atoms: _419  and  _420
REMARK  170  A    between atoms: _420  and  _421
REMARK  171  A    between atoms: _421  and  _422
REMARK  172  A    between atoms: _431  and  _433
REMARK  173  A    between atoms: _433  and  _434
REMARK  174  A    between atoms: _433  and  _436
REMARK  175  A    between atoms: _436  and  _437
REMARK  176  A    between atoms: _442  and  _444
REMARK  177  A    between atoms: _444  and  _445
REMARK  178  A    between atoms: _444  and  _447
REMARK  179  A    between atoms: _447  and  _448
REMARK  180  A    between atoms: _453  and  _454
REMARK  181  A    between atoms: _456  and  _458
REMARK  182  A    between atoms: _458  and  _459
REMARK  183  A    between atoms: _458  and  _461
REMARK  184  A    between atoms: _461  and  _462
REMARK  185  A    between atoms: _462  and  _463
REMARK  186  A    between atoms: _463  and  _464
REMARK  187  A    between atoms: _464  and  _465
REMARK  188  A    between atoms: _469  and  _471
REMARK  189  A    between atoms: _471  and  _472
REMARK  190  A    between atoms: _471  and  _474
REMARK  191  A    between atoms: _474  and  _475
REMARK  192  A    between atoms: _477  and  _479
REMARK  193  A    between atoms: _479  and  _480
REMARK  194  A    between atoms: _479  and  _482
REMARK  195  A    between atoms: _482  and  _483
REMARK  196  A    between atoms: _486  and  _488
REMARK  197  A    between atoms: _488  and  _489
REMARK  198  A    between atoms: _488  and  _491
REMARK  199  A    between atoms: _491  and  _492
REMARK  200  A    between atoms: _492  and  _493
REMARK  201  A    between atoms: _496  and  _498
REMARK  202  A    between atoms: _498  and  _499
REMARK  203  A    between atoms: _502  and  _504
REMARK  204  A    between atoms: _504  and  _505
REMARK  205  A    between atoms: _504  and  _507
REMARK  206  A    between atoms: _507  and  _508
REMARK  207  A    between atoms: _510  and  _512
REMARK  208  A    between atoms: _512  and  _513
REMARK  209  A    between atoms: _515  and  _517
REMARK  210  A    between atoms: _517  and  _518
REMARK  211  A    between atoms: _517  and  _520
REMARK  212  A    between atoms: _520  and  _521
REMARK  213  A    between atoms: _524  and  _526
REMARK  214  A    between atoms: _526  and  _527
REMARK  215  A    between atoms: _529  and  _531
REMARK  216  A    between atoms: _531  and  _532
REMARK  217  A    between atoms: _531  and  _534
REMARK  218  A    between atoms: _534  and  _535
REMARK  219  A    between atoms: _540  and  _542
REMARK  220  A    between atoms: _542  and  _543
REMARK  221  A    between atoms: _542  and  _545
REMARK  222  A    between atoms: _545  and  _546
REMARK  223  A    between atoms: _546  and  _547
REMARK  224  A    between atoms: _554  and  _555
REMARK  225  A    between atoms: _555  and  _571
REMARK  226  A    between atoms: _556  and  _558
REMARK  227  A    between atoms: _558  and  _559
REMARK  228  A    between atoms: _559  and  _560
REMARK  229  A    between atoms: _564  and  _566
REMARK  230  A    between atoms: _566  and  _567
REMARK  231  A    between atoms: _566  and  _574
REMARK  232  A    between atoms: _567  and  _568
REMARK  233  A    between atoms: _568  and  _569
REMARK  234  A    between atoms: _569  and  _570
REMARK  235  A    between atoms: _570  and  _571
REMARK  236  A    between atoms: _576  and  _578
REMARK  237  A    between atoms: _578  and  _579
REMARK  238  A    between atoms: _578  and  _581
REMARK  239  A    between atoms: _581  and  _582
REMARK  240  A    between atoms: _585  and  _587
REMARK  241  A    between atoms: _587  and  _588
REMARK  242  A    between atoms: _590  and  _592
REMARK  243  A    between atoms: _592  and  _593
REMARK  244  A    between atoms: _596  and  _598
REMARK  245  A    between atoms: _598  and  _599
REMARK  246  A    between atoms: _598  and  _601
REMARK  247  A    between atoms: _601  and  _602
REMARK  248  A    between atoms: _607  and  _608
REMARK                            x       y       z     vdW  Elec       q    Type
REMARK                         _______ _______ _______ _____ _____    ______ ____
ROOT
ATOM      1  C   ASN A   3      39.618  18.141  27.466  0.00  0.00    +0.241 C 
ATOM      2  N   HIS A   4      39.343  19.415  27.755  0.00  0.00    -0.297 N 
ATOM      3  H   HIS A   4      40.014  19.982  28.312  0.00  0.00    +0.150 HD
ATOM      4  O   ASN A   3      38.954  17.499  26.618  0.00  0.00    -0.273 OA
ENDROOT
BRANCH   2   5
ATOM      5  CA  HIS A   4      38.089  20.010  27.282  0.00  0.00    +0.155 C 
BRANCH   5   6
ATOM      6  C   HIS A   4      38.301  21.381  26.617  0.00  0.00    +0.241 C 
ATOM      7  O   HIS A   4      37.359  22.123  26.489  0.00  0.00    -0.273 OA
ATOM      8  N   THR A   5      39.530  21.700  26.211  0.00  0.00    -0.295 N 
ATOM      9  H   THR A   5      40.280  20.986  26.302  0.00  0.00    +0.150 HD
BRANCH   8  10
ATOM     10  CA  THR A   5      39.872  22.983  25.653  0.00  0.00    +0.176 C 
BRANCH  10  11
ATOM     11  C   THR A   5      41.232  22.984  24.906  0.00  0.00    +0.243 C 
ATOM     12  O   THR A   5      42.153  22.147  25.197  0.00  0.00    -0.273 OA
ATOM     13  N   VAL A   6      41.361  23.934  23.959  0.00  0.00    -0.297 N 
ATOM     14  H   VAL A   6      40.515  24.419  23.597  0.00  0.00    +0.150 HD
BRANCH  13  15
ATOM     15  CA  VAL A   6      42.665  24.285  23.442  0.00  0.00    +0.149 C 
BRANCH  15  16
ATOM     16  C   VAL A   6      42.833  25.775  23.559  0.00  0.00    +0.241 C 
ATOM     17  N   LEU A   7      41.903  26.484  24.209  0.00  0.00    -0.298 N 
ATOM     18  H   LEU A   7      41.046  26.019  24.571  0.00  0.00    +0.150 HD
ATOM     19  O   VAL A   6      43.793  26.298  23.018  0.00  0.00    -0.273 OA
BRANCH  17  20
ATOM     20  CA  LEU A   7      42.103  27.924  24.406  0.00  0.00    +0.137 C 
BRANCH  20  21
ATOM     21  C   LEU A   7      43.271  28.117  25.411  0.00  0.00    +0.227 C 
ATOM     22  O   LEU A   7      43.207  27.584  26.528  0.00  0.00    -0.286 OA
ENDBRANCH  20  21
BRANCH  20  23
ATOM     23  CB  LEU A   7      40.837  28.579  24.985  0.00  0.00    +0.028 C 
BRANCH  23  24
ATOM     24  CG  LEU A   7      39.609  28.412  24.091  0.00  0.00    +0.002 C 
ATOM     25  CD2 LEU A   7      38.362  28.931  24.771  0.00  0.00    +0.000 C 
ATOM     26  CD1 LEU A   7      39.863  29.135  22.769  0.00  0.00    +0.000 C 
ENDBRANCH  23  24
ENDBRANCH  20  23
ENDBRANCH  17  20
ENDBRANCH  15  16
BRANCH  15  27
ATOM     27  CB  VAL A   6      42.909  23.779  21.951  0.00  0.00    +0.027 C 
ATOM     28  CG2 VAL A   6      42.662  22.259  21.855  0.00  0.00    +0.002 C 
ATOM     29  CG1 VAL A   6      42.037  24.545  20.932  0.00  0.00    +0.002 C 
ENDBRANCH  15  27
ENDBRANCH  13  15
ENDBRANCH  10  11
BRANCH  10  30
ATOM     30  CB  THR A   5      39.978  24.086  26.759  0.00  0.00    +0.137 C 
ATOM     31  CG2 THR A   5      41.265  23.939  27.574  0.00  0.00    +0.034 C 
BRANCH  30  32
ATOM     32  OG1 THR A   5      39.932  25.344  26.125  0.00  0.00    -0.382 OA
ATOM     33  HG1 THR A   5      39.998  26.059  26.807  0.00  0.00    +0.210 HD
ENDBRANCH  30  32
ENDBRANCH  10  30
ENDBRANCH   8  10
ENDBRANCH   5   6
BRANCH   5  34
ATOM     34  CB  HIS A   4      37.064  20.211  28.414  0.00  0.00    +0.076 C 
BRANCH  34  35
ATOM     35  CG  HIS A   4      36.671  18.978  29.153  0.00  0.00    +0.082 A 
ATOM     36  CD2 HIS A   4      37.305  18.263  30.128  0.00  0.00    +0.115 A 
ATOM     37  NE2 HIS A   4      36.447  17.259  30.515  0.00  0.00    -0.221 NA
ATOM     38  CE1 HIS A   4      35.345  17.328  29.779  0.00  0.00    +0.199 A 
ATOM     39  ND1 HIS A   4      35.439  18.385  28.987  0.00  0.00    -0.227 NA
ENDBRANCH  34  35
ENDBRANCH   5  34
ENDBRANCH   2   5
BRANCH   1  40
ATOM     40  CA  ASN A   3      40.844  17.539  28.056  0.00  0.00    +0.158 C 
BRANCH  40  43
ATOM     41  C   THR A   2      40.220  15.686  29.551  0.00  0.00    +0.243 C 
ATOM     42  O   THR A   2      40.040  16.455  30.521  0.00  0.00    -0.273 OA
ATOM     43  N   ASN A   3      40.613  16.121  28.360  0.00  0.00    -0.297 N 
ATOM     44  H   ASN A   3      40.765  15.423  27.604  0.00  0.00    +0.150 HD
BRANCH  41  45
ATOM     45  CA  THR A   2      39.930  14.187  29.665  0.00  0.00    +0.176 C 
BRANCH  45  47
ATOM     46  C   TYR A   1      41.775  12.852  30.532  0.00  0.00    +0.239 C 
ATOM     47  N   THR A   2      40.722  13.643  30.747  0.00  0.00    -0.295 N 
ATOM     48  H   THR A   2      40.461  13.877  31.726  0.00  0.00    +0.150 HD
ATOM     49  O   TYR A   1      42.134  12.487  29.392  0.00  0.00    -0.274 OA
BRANCH  46  50
ATOM     50  CA  TYR A   1      42.619  12.484  31.748  0.00  0.00    +0.149 C 
BRANCH  50  51
ATOM     51  N   TYR A   1      42.855  11.055  31.797  0.00  0.00    -0.238 NA
ATOM     52  H   TYR A   1      43.321  10.596  30.988  0.00  0.00    +0.142 HD
ENDBRANCH  50  51
BRANCH  50  53
ATOM     53  CB  TYR A   1      43.978  13.129  31.672  0.00  0.00    +0.053 C 
BRANCH  53  54
ATOM     54  CG  TYR A   1      44.047  14.571  31.152  0.00  0.00    -0.020 A 
ATOM     55  CD2 TYR A   1      43.265  15.588  31.702  0.00  0.00    -0.001 A 
ATOM     56  CE2 TYR A   1      43.348  16.892  31.218  0.00  0.00    +0.036 A 
ATOM     57  CZ  TYR A   1      44.297  17.177  30.162  0.00  0.00    +0.134 A 
ATOM     58  CE1 TYR A   1      45.056  16.183  29.640  0.00  0.00    +0.036 A 
ATOM     59  CD1 TYR A   1      44.944  14.884  30.148  0.00  0.00    -0.001 A 
BRANCH  57  60
ATOM     60  OH  TYR A   1      44.452  18.457  29.647  0.00  0.00    -0.506 OA
ATOM     61  HH  TYR A   1      43.840  19.077  30.118  0.00  0.00    +0.292 HD
ENDBRANCH  57  60
ENDBRANCH  53  54
ENDBRANCH  50  53
ENDBRANCH  46  50
ENDBRANCH  45  47
BRANCH  45  62
ATOM     62  CB  THR A   2      38.440  13.986  29.885  0.00  0.00    +0.137 C 
ATOM     63  CG2 THR A   2      37.590  14.565  28.772  0.00  0.00    +0.034 C 
BRANCH  62  64
ATOM     64  OG1 THR A   2      38.158  12.613  30.035  0.00  0.00    -0.382 OA
ATOM     65  HG1 THR A   2      38.436  12.129  29.217  0.00  0.00    +0.210 HD
ENDBRANCH  62  64
ENDBRANCH  45  62
ENDBRANCH  41  45
ENDBRANCH  40  43
BRANCH  40  66
ATOM     66  CB  ASN A   3      42.015  17.625  26.976  0.00  0.00    +0.114 C 
BRANCH  66  67
ATOM     67  CG  ASN A   3      42.201  19.060  26.407  0.00  0.00    +0.222 C 
ATOM     68  ND2 ASN A   3      43.021  19.916  27.072  0.00  0.00    -0.329 N 
ATOM     69 HD21 ASN A   3      43.561  19.584  27.896  0.00  0.00    +0.145 HD
ATOM     70 HD22 ASN A   3      43.108  20.903  26.756  0.00  0.00    +0.145 HD
ATOM     71  OD1 ASN A   3      41.546  19.400  25.434  0.00  0.00    -0.275 OA
ENDBRANCH  66  67
ENDBRANCH  40  66
ENDBRANCH   1  40
TORSDOF 28
REMARK  Name = ../refined-set-2016/4el5/4el5_pocket.pdb
REMARK  248 active torsions:
REMARK  status: ('A' for Active; 'I' for Inactive)
REMARK    1  A    between atoms: _1  and  _3
REMARK    2  A    between atoms: _3  and  _4
REMARK    3  A    between atoms: _3  and  _6
REMARK    4  A    between atoms: _6  and  _7
REMARK    5  A    between atoms: _12  and  _13
REMARK    6  A    between atoms: _15  and  _17
REMARK    7  A    between atoms: _17  and  _18
REMARK    8  A    between atoms: _17  and  _20
REMARK    9  A    between atoms: _20  and  _21
REMARK   10  A    between atoms: _21  and  _22
REMARK   11  A    between atoms: _25  and  _27
REMARK   12  A    between atoms: _27  and  _28
REMARK   13  A    between atoms: _27  and  _30
REMARK   14  A    between atoms: _30  and  _31
REMARK   15  A    between atoms: _36  and  _38
REMARK   16  A    between atoms: _38  and  _39
REMARK   17  A    between atoms: _41  and  _43
REMARK   18  A    between atoms: _43  and  _44
REMARK   19  A    between atoms: _46  and  _48
REMARK   20  A    between atoms: _48  and  _49
REMARK   21  A    between atoms: _48  and  _51
REMARK   22  A    between atoms: _51  and  _52
REMARK   23  A    between atoms: _55  and  _57
REMARK   24  A    between atoms: _57  and  _58
REMARK   25  A    between atoms: _60  and  _62
REMARK   26  A    between atoms: _62  and  _63
REMARK   27  A    between atoms: _62  and  _65
REMARK   28  A    between atoms: _65  and  _66
REMARK   29  A    between atoms: _66  and  _67
REMARK   30  A    between atoms: _67  and  _68
REMARK   31  A    between atoms: _77  and  _79
REMARK   32  A    between atoms: _79  and  _80
REMARK   33  A    between atoms: _79  and  _82
REMARK   34  A    between atoms: _82  and  _83
REMARK   35  A    between atoms: _86  and  _88
REMARK   36  A    between atoms: _88  and  _89
REMARK   37  A    between atoms: _92  and  _94
REMARK   38  A    between atoms: _94  and  _95
REMARK   39  A    between atoms: _94  and  _97
REMARK   40  A    between atoms: _97  and  _98
REMARK   41  A    between atoms: _104  and  _106
REMARK   42  A    between atoms: _106  and  _107
REMARK   43  A    between atoms: _106  and  _109
REMARK   44  A    between atoms: _109  and  _110
REMARK   45  A    between atoms: _115  and  _117
REMARK   46  A    between atoms: _117  and  _118
REMARK   47  A    between atoms: _117  and  _120
REMARK   48  A    between atoms: _120  and  _121
REMARK   49  A    between atoms: _124  and  _126
REMARK   50  A    between atoms: _126  and  _127
REMARK   51  A    between atoms: _126  and  _129
REMARK   52  A    between atoms: _129  and  _130
REMARK   53  A    between atoms: _135  and  _137
REMARK   54  A    between atoms: _137  and  _138
REMARK   55  A    between atoms: _137  and  _140
REMARK   56  A    between atoms: _140  and  _141
REMARK   57  A    between atoms: _147  and  _149
REMARK   58  A    between atoms: _149  and  _150
REMARK   59  A    between atoms: _149  and  _152
REMARK   60  A    between atoms: _152  and  _153
REMARK   61  A    between atoms: _159  and  _161
REMARK   62  A    between atoms: _161  and  _162
REMARK   63  A    between atoms: _161  and  _164
REMARK   64  A    between atoms: _164  and  _165
REMARK   65  A    between atoms: _165  and  _166
REMARK   66  A    between atoms: _166  and  _167
REMARK   67  A    between atoms: _176  and  _178
REMARK   68  A    between atoms: _178  and  _179
REMARK   69  A    between atoms: _178  and  _181
REMARK   70  A    between atoms: _181  and  _182
REMARK   71  A    between atoms: _187  and  _189
REMARK   72  A    between atoms: _189  and  _190
REMARK   73  A    between atoms: _189  and  _192
REMARK   74  A    between atoms: _192  and  _193
REMARK   75  A    between atoms: _196  and  _198
REMARK   76  A    between atoms: _198  and  _199
REMARK   77  A    between atoms: _198  and  _201
REMARK   78  A    between atoms: _201  and  _202
REMARK   79  A    between atoms: _205  and  _207
REMARK   80  A    between atoms: _207  and  _208
REMARK   81  A    between atoms: _207  and  _210
REMARK   82  A    between atoms: _210  and  _211
REMARK   83  A    between atoms: _216  and  _218
REMARK   84  A    between atoms: _218  and  _219
REMARK   85  A    between atoms: _218  and  _221
REMARK   86  A    between atoms: _221  and  _222
REMARK   87  A    between atoms: _227  and  _228
REMARK   88  A    between atoms: _230  and  _232
REMARK   89  A    between atoms: _232  and  _233
REMARK   90  A    between atoms: _232  and  _235
REMARK   91  A    between atoms: _235  and  _236
REMARK   92  A    between atoms: _239  and  _241
REMARK   93  A    between atoms: _241  and  _242
REMARK   94  A    between atoms: _241  and  _244
REMARK   95  A    between atoms: _244  and  _245
REMARK   96  A    between atoms: _250  and  _252
REMARK   97  A    between atoms: _252  and  _253
REMARK   98  A    between atoms: _252  and  _255
REMARK   99  A    between atoms: _255  and  _256
REMARK  100  A    between atoms: _261  and  _263
REMARK  101  A    between atoms: _263  and  _264
REMARK  102  A    between atoms: _263  and  _266
REMARK  103  A    between atoms: _266  and  _267
REMARK  104  A    between atoms: _270  and  _272
REMARK  105  A    between atoms: _272  and  _273
REMARK  106  A    between atoms: _272  and  _275
REMARK  107  A    between atoms: _278  and  _280
REMARK  108  A    between atoms: _280  and  _281
REMARK  109  A    between atoms: _280  and  _283
REMARK  110  A    between atoms: _283  and  _284
REMARK  111  A    between atoms: _287  and  _289
REMARK  112  A    between atoms: _289  and  _290
REMARK  113  A    between atoms: _289  and  _292
REMARK  114  A    between atoms: _292  and  _293
REMARK  115  A    between atoms: _293  and  _294
REMARK  116  A    between atoms: _297  and  _299
REMARK  117  A    between atoms: _299  and  _300
REMARK  118  A    between atoms: _303  and  _305
REMARK  119  A    between atoms: _305  and  _306
REMARK  120  A    between atoms: _305  and  _308
REMARK  121  A    between atoms: _308  and  _309
REMARK  122  A    between atoms: _312  and  _314
REMARK  123  A    between atoms: _314  and  _315
REMARK  124  A    between atoms: _314  and  _317
REMARK  125  A    between atoms: _317  and  _318
REMARK  126  A    between atoms: _318  and  _319
REMARK  127  A    between atoms: _322  and  _324
REMARK  128  A    between atoms: _324  and  _325
REMARK  129  A    between atoms: _324  and  _327
REMARK  130  A    between atoms: _327  and  _328
REMARK  131  A    between atoms: _333  and  _335
REMARK  132  A    between atoms: _335  and  _336
REMARK  133  A    between atoms: _338  and  _340
REMARK  134  A    between atoms: _340  and  _341
REMARK  135  A    between atoms: _340  and  _343
REMARK  136  A    between atoms: _346  and  _348
REMARK  137  A    between atoms: _348  and  _349
REMARK  138  A    between atoms: _352  and  _354
REMARK  139  A    between atoms: _354  and  _355
REMARK  140  A    between atoms: _354  and  _357
REMARK  141  A    between atoms: _357  and  _358
REMARK  142  A    between atoms: _363  and  _365
REMARK  143  A    between atoms: _365  and  _366
REMARK  144  A    between atoms: _365  and  _368
REMARK  145  A    between atoms: _368  and  _369
REMARK  146  A    between atoms: _369  and  _370
REMARK  147  A    between atoms: _370  and  _371
REMARK  148  A    between atoms: _371  and  _372
REMARK  149  A    between atoms: _376  and  _378
REMARK  150  A    between atoms: _378  and  _379
REMARK  151  A    between atoms: _378  and  _381
REMARK  152  A    between atoms: _381  and  _382
REMARK  153  A    between atoms: _385  and  _387
REMARK  154  A    between atoms: _387  and  _388
REMARK  155  A    between atoms: _387  and  _390
REMARK  156  A    between atoms: _390  and  _391
REMARK  157  A    between atoms: _396  and  _398
REMARK  158  A    between atoms: _398  and  _399
REMARK  159  A    between atoms: _401  and  _403
REMARK  160  A    between atoms: _403  and  _404
REMARK  161  A    between atoms: _403  and  _406
REMARK  162  A    between atoms: _406  and  _407
REMARK  163  A    between atoms: _407  and  _408
REMARK  164  A    between atoms: _408  and  _409
REMARK  165  A    between atoms: _409  and  _410
REMARK  166  A    between atoms: _414  and  _416
REMARK  167  A    between atoms: _416  and  _417
REMARK  168  A    between atoms: _416  and  _419
REMARK  169  A    between atoms: _419  and  _420
REMARK  170  A    between atoms: _420  and  _421
REMARK  171  A    between atoms: _421  and  _422
REMARK  172  A    between atoms: _431  and  _433
REMARK  173  A    between atoms: _433  and  _434
REMARK  174  A    between atoms: _433  and  _436
REMARK  175  A    between atoms: _436  and  _437
REMARK  176  A    between atoms: _442  and  _444
REMARK  177  A    between atoms: _444  and  _445
REMARK  178  A    between atoms: _444  and  _447
REMARK  179  A    between atoms: _447  and  _448
REMARK  180  A    between atoms: _453  and  _454
REMARK  181  A    between atoms: _456  and  _458
REMARK  182  A    between atoms: _458  and  _459
REMARK  183  A    between atoms: _458  and  _461
REMARK  184  A    between atoms: _461  and  _462
REMARK  185  A    between atoms: _462  and  _463
REMARK  186  A    between atoms: _463  and  _464
REMARK  187  A    between atoms: _464  and  _465
REMARK  188  A    between atoms: _469  and  _471
REMARK  189  A    between atoms: _471  and  _472
REMARK  190  A    between atoms: _471  and  _474
REMARK  191  A    between atoms: _474  and  _475
REMARK  192  A    between atoms: _477  and  _479
REMARK  193  A    between atoms: _479  and  _480
REMARK  194  A    between atoms: _479  and  _482
REMARK  195  A    between atoms: _482  and  _483
REMARK  196  A    between atoms: _486  and  _488
REMARK  197  A    between atoms: _488  and  _489
REMARK  198  A    between atoms: _488  and  _491
REMARK  199  A    between atoms: _491  and  _492
REMARK  200  A    between atoms: _492  and  _493
REMARK  201  A    between atoms: _496  and  _498
REMARK  202  A    between atoms: _498  and  _499
REMARK  203  A    between atoms: _502  and  _504
REMARK  204  A    between atoms: _504  and  _505
REMARK  205  A    between atoms: _504  and  _507
REMARK  206  A    between atoms: _507  and  _508
REMARK  207  A    between atoms: _510  and  _512
REMARK  208  A    between atoms: _512  and  _513
REMARK  209  A    between atoms: _515  and  _517
REMARK  210  A    between atoms: _517  and  _518
REMARK  211  A    between atoms: _517  and  _520
REMARK  212  A    between atoms: _520  and  _521
REMARK  213  A    between atoms: _524  and  _526
REMARK  214  A    between atoms: _526  and  _527
REMARK  215  A    between atoms: _529  and  _531
REMARK  216  A    between atoms: _531  and  _532
REMARK  217  A    between atoms: _531  and  _534
REMARK  218  A    between atoms: _534  and  _535
REMARK  219  A    between atoms: _540  and  _542
REMARK  220  A    between atoms: _542  and  _543
REMARK  221  A    between atoms: _542  and  _545
REMARK  222  A    between atoms: _545  and  _546
REMARK  223  A    between atoms: _546  and  _547
REMARK  224  A    between atoms: _554  and  _555
REMARK  225  A    between atoms: _555  and  _571
REMARK  226  A    between atoms: _556  and  _558
REMARK  227  A    between atoms: _558  and  _559
REMARK  228  A    between atoms: _559  and  _560
REMARK  229  A    between atoms: _564  and  _566
REMARK  230  A    between atoms: _566  and  _567
REMARK  231  A    between atoms: _566  and  _574
REMARK  232  A    between atoms: _567  and  _568
REMARK  233  A    between atoms: _568  and  _569
REMARK  234  A    between atoms: _569  and  _570
REMARK  235  A    between atoms: _570  and  _571
REMARK  236  A    between atoms: _576  and  _578
REMARK  237  A    between atoms: _578  and  _579
REMARK  238  A    between atoms: _578  and  _581
REMARK  239  A    between atoms: _581  and  _582
REMARK  240  A    between atoms: _585  and  _587
REMARK  241  A    between atoms: _587  and  _588
REMARK  242  A    between atoms: _590  and  _592
REMARK  243  A    between atoms: _592  and  _593
REMARK  244  A    between atoms: _596  and  _598
REMARK  245  A    between atoms: _598  and  _599
REMARK  246  A    between atoms: _598  and  _601
REMARK  247  A    between atoms: _601  and  _602
REMARK  248  A    between atoms: _607  and  _608
REMARK                            x       y       z     vdW  Elec       q    Type
REMARK                         _______ _______ _______ _____ _____    ______ ____
ROOT
ATOM      1  C   ALA A   2      42.565  27.138  30.472  0.00  0.00    +0.241 C 
ATOM      2  O   ALA A   2      42.078  26.373  31.305  0.00  0.00    -0.273 OA
ATOM      3  N   LEU A   3      43.829  27.024  30.028  0.00  0.00    -0.297 N 
ATOM      4  H   LEU A   3      44.160  27.674  29.287  0.00  0.00    +0.150 HD
ENDROOT
BRANCH   1   5
ATOM      5  CA  ALA A   2      41.695  28.234  29.851  0.00  0.00    +0.149 C 
ATOM      6  CB  ALA A   2      40.577  27.599  29.052  0.00  0.00    +0.031 C 
BRANCH   5   9
ATOM      7  C   GLU A   1      42.959  30.339  29.528  0.00  0.00    +0.238 C 
ATOM      8  O   GLU A   1      42.812  30.694  30.732  0.00  0.00    -0.274 OA
ATOM      9  N   ALA A   2      42.487  29.181  29.046  0.00  0.00    -0.297 N 
ATOM     10  H   ALA A   2      42.690  28.939  28.055  0.00  0.00    +0.150 HD
BRANCH   7  11
ATOM     11  CA  GLU A   1      43.716  31.283  28.522  0.00  0.00    +0.145 C 
BRANCH  11  12
ATOM     12  N   GLU A   1      44.099  30.626  27.263  0.00  0.00    -0.238 NA
ATOM     13  H   GLU A   1      43.622  30.877  26.374  0.00  0.00    +0.142 HD
ENDBRANCH  11  12
BRANCH  11  14
ATOM     14  CB  GLU A   1      42.901  32.560  28.254  0.00  0.00    +0.038 C 
BRANCH  14  15
ATOM     15  CG  GLU A   1      41.465  32.337  27.616  0.00  0.00    +0.116 C 
BRANCH  15  16
ATOM     16  CD  GLU A   1      41.448  32.399  26.080  0.00  0.00    +0.365 C 
ATOM     17  OE2 GLU A   1      40.448  32.931  25.534  0.00  0.00    -0.246 OA
ATOM     18  OE1 GLU A   1      42.421  31.906  25.425  0.00  0.00    -0.246 OA
ENDBRANCH  15  16
ENDBRANCH  14  15
ENDBRANCH  11  14
ENDBRANCH   7  11
ENDBRANCH   5   9
ENDBRANCH   1   5
BRANCH   3  19
ATOM     19  CA  LEU A   3      44.754  26.022  30.548  0.00  0.00    +0.149 C 
BRANCH  19  20
ATOM     20  C   LEU A   3      45.345  26.388  31.919  0.00  0.00    +0.241 C 
ATOM     21  N   GLU A   4      45.311  25.449  32.887  0.00  0.00    -0.298 N 
ATOM     22  H   GLU A   4      44.914  24.510  32.681  0.00  0.00    +0.150 HD
ATOM     23  O   LEU A   3      45.853  27.493  32.092  0.00  0.00    -0.273 OA
BRANCH  21  24
ATOM     24  CA  GLU A   4      45.833  25.744  34.237  0.00  0.00    +0.137 C 
BRANCH  24  25
ATOM     25  C   GLU A   4      47.352  25.661  34.270  0.00  0.00    +0.227 C 
ATOM     26  O   GLU A   4      47.915  24.668  33.874  0.00  0.00    -0.286 OA
ENDBRANCH  24  25
BRANCH  24  27
ATOM     27  CB  GLU A   4      45.304  24.718  35.253  0.00  0.00    +0.039 C 
BRANCH  27  28
ATOM     28  CG  GLU A   4      43.771  24.770  35.433  0.00  0.00    +0.116 C 
BRANCH  28  29
ATOM     29  CD  GLU A   4      43.363  23.918  36.641  0.00  0.00    +0.365 C 
ATOM     30  OE2 GLU A   4      42.971  24.551  37.643  0.00  0.00    -0.246 OA
ATOM     31  OE1 GLU A   4      43.506  22.662  36.587  0.00  0.00    -0.246 OA
ENDBRANCH  28  29
ENDBRANCH  27  28
ENDBRANCH  24  27
ENDBRANCH  21  24
ENDBRANCH  19  20
BRANCH  19  32
ATOM     32  CB  LEU A   3      45.903  25.802  29.566  0.00  0.00    +0.029 C 
BRANCH  32  33
ATOM     33  CG  LEU A   3      45.391  25.149  28.252  0.00  0.00    +0.002 C 
ATOM     34  CD2 LEU A   3      44.798  23.698  28.370  0.00  0.00    +0.000 C 
ATOM     35  CD1 LEU A   3      46.555  25.159  27.247  0.00  0.00    +0.000 C 
ENDBRANCH  32  33
ENDBRANCH  19  32
ENDBRANCH   3  19
TORSDOF 16
REMARK  Name = ../refined-set-2016/4el5/4el5_pocket.pdb
REMARK  248 active torsions:
REMARK  status: ('A' for Active; 'I' for Inactive)
REMARK    1  A    between atoms: _1  and  _3
REMARK    2  A    between atoms: _3  and  _4
REMARK    3  A    between atoms: _3  and  _6
REMARK    4  A    between atoms: _6  and  _7
REMARK    5  A    between atoms: _12  and  _13
REMARK    6  A    between atoms: _15  and  _17
REMARK    7  A    between atoms: _17  and  _18
REMARK    8  A    between atoms: _17  and  _20
REMARK    9  A    between atoms: _20  and  _21
REMARK   10  A    between atoms: _21  and  _22
REMARK   11  A    between atoms: _25  and  _27
REMARK   12  A    between atoms: _27  and  _28
REMARK   13  A    between atoms: _27  and  _30
REMARK   14  A    between atoms: _30  and  _31
REMARK   15  A    between atoms: _36  and  _38
REMARK   16  A    between atoms: _38  and  _39
REMARK   17  A    between atoms: _41  and  _43
REMARK   18  A    between atoms: _43  and  _44
REMARK   19  A    between atoms: _46  and  _48
REMARK   20  A    between atoms: _48  and  _49
REMARK   21  A    between atoms: _48  and  _51
REMARK   22  A    between atoms: _51  and  _52
REMARK   23  A    between atoms: _55  and  _57
REMARK   24  A    between atoms: _57  and  _58
REMARK   25  A    between atoms: _60  and  _62
REMARK   26  A    between atoms: _62  and  _63
REMARK   27  A    between atoms: _62  and  _65
REMARK   28  A    between atoms: _65  and  _66
REMARK   29  A    between atoms: _66  and  _67
REMARK   30  A    between atoms: _67  and  _68
REMARK   31  A    between atoms: _77  and  _79
REMARK   32  A    between atoms: _79  and  _80
REMARK   33  A    between atoms: _79  and  _82
REMARK   34  A    between atoms: _82  and  _83
REMARK   35  A    between atoms: _86  and  _88
REMARK   36  A    between atoms: _88  and  _89
REMARK   37  A    between atoms: _92  and  _94
REMARK   38  A    between atoms: _94  and  _95
REMARK   39  A    between atoms: _94  and  _97
REMARK   40  A    between atoms: _97  and  _98
REMARK   41  A    between atoms: _104  and  _106
REMARK   42  A    between atoms: _106  and  _107
REMARK   43  A    between atoms: _106  and  _109
REMARK   44  A    between atoms: _109  and  _110
REMARK   45  A    between atoms: _115  and  _117
REMARK   46  A    between atoms: _117  and  _118
REMARK   47  A    between atoms: _117  and  _120
REMARK   48  A    between atoms: _120  and  _121
REMARK   49  A    between atoms: _124  and  _126
REMARK   50  A    between atoms: _126  and  _127
REMARK   51  A    between atoms: _126  and  _129
REMARK   52  A    between atoms: _129  and  _130
REMARK   53  A    between atoms: _135  and  _137
REMARK   54  A    between atoms: _137  and  _138
REMARK   55  A    between atoms: _137  and  _140
REMARK   56  A    between atoms: _140  and  _141
REMARK   57  A    between atoms: _147  and  _149
REMARK   58  A    between atoms: _149  and  _150
REMARK   59  A    between atoms: _149  and  _152
REMARK   60  A    between atoms: _152  and  _153
REMARK   61  A    between atoms: _159  and  _161
REMARK   62  A    between atoms: _161  and  _162
REMARK   63  A    between atoms: _161  and  _164
REMARK   64  A    between atoms: _164  and  _165
REMARK   65  A    between atoms: _165  and  _166
REMARK   66  A    between atoms: _166  and  _167
REMARK   67  A    between atoms: _176  and  _178
REMARK   68  A    between atoms: _178  and  _179
REMARK   69  A    between atoms: _178  and  _181
REMARK   70  A    between atoms: _181  and  _182
REMARK   71  A    between atoms: _187  and  _189
REMARK   72  A    between atoms: _189  and  _190
REMARK   73  A    between atoms: _189  and  _192
REMARK   74  A    between atoms: _192  and  _193
REMARK   75  A    between atoms: _196  and  _198
REMARK   76  A    between atoms: _198  and  _199
REMARK   77  A    between atoms: _198  and  _201
REMARK   78  A    between atoms: _201  and  _202
REMARK   79  A    between atoms: _205  and  _207
REMARK   80  A    between atoms: _207  and  _208
REMARK   81  A    between atoms: _207  and  _210
REMARK   82  A    between atoms: _210  and  _211
REMARK   83  A    between atoms: _216  and  _218
REMARK   84  A    between atoms: _218  and  _219
REMARK   85  A    between atoms: _218  and  _221
REMARK   86  A    between atoms: _221  and  _222
REMARK   87  A    between atoms: _227  and  _228
REMARK   88  A    between atoms: _230  and  _232
REMARK   89  A    between atoms: _232  and  _233
REMARK   90  A    between atoms: _232  and  _235
REMARK   91  A    between atoms: _235  and  _236
REMARK   92  A    between atoms: _239  and  _241
REMARK   93  A    between atoms: _241  and  _242
REMARK   94  A    between atoms: _241  and  _244
REMARK   95  A    between atoms: _244  and  _245
REMARK   96  A    between atoms: _250  and  _252
REMARK   97  A    between atoms: _252  and  _253
REMARK   98  A    between atoms: _252  and  _255
REMARK   99  A    between atoms: _255  and  _256
REMARK  100  A    between atoms: _261  and  _263
REMARK  101  A    between atoms: _263  and  _264
REMARK  102  A    between atoms: _263  and  _266
REMARK  103  A    between atoms: _266  and  _267
REMARK  104  A    between atoms: _270  and  _272
REMARK  105  A    between atoms: _272  and  _273
REMARK  106  A    between atoms: _272  and  _275
REMARK  107  A    between atoms: _278  and  _280
REMARK  108  A    between atoms: _280  and  _281
REMARK  109  A    between atoms: _280  and  _283
REMARK  110  A    between atoms: _283  and  _284
REMARK  111  A    between atoms: _287  and  _289
REMARK  112  A    between atoms: _289  and  _290
REMARK  113  A    between atoms: _289  and  _292
REMARK  114  A    between atoms: _292  and  _293
REMARK  115  A    between atoms: _293  and  _294
REMARK  116  A    between atoms: _297  and  _299
REMARK  117  A    between atoms: _299  and  _300
REMARK  118  A    between atoms: _303  and  _305
REMARK  119  A    between atoms: _305  and  _306
REMARK  120  A    between atoms: _305  and  _308
REMARK  121  A    between atoms: _308  and  _309
REMARK  122  A    between atoms: _312  and  _314
REMARK  123  A    between atoms: _314  and  _315
REMARK  124  A    between atoms: _314  and  _317
REMARK  125  A    between atoms: _317  and  _318
REMARK  126  A    between atoms: _318  and  _319
REMARK  127  A    between atoms: _322  and  _324
REMARK  128  A    between atoms: _324  and  _325
REMARK  129  A    between atoms: _324  and  _327
REMARK  130  A    between atoms: _327  and  _328
REMARK  131  A    between atoms: _333  and  _335
REMARK  132  A    between atoms: _335  and  _336
REMARK  133  A    between atoms: _338  and  _340
REMARK  134  A    between atoms: _340  and  _341
REMARK  135  A    between atoms: _340  and  _343
REMARK  136  A    between atoms: _346  and  _348
REMARK  137  A    between atoms: _348  and  _349
REMARK  138  A    between atoms: _352  and  _354
REMARK  139  A    between atoms: _354  and  _355
REMARK  140  A    between atoms: _354  and  _357
REMARK  141  A    between atoms: _357  and  _358
REMARK  142  A    between atoms: _363  and  _365
REMARK  143  A    between atoms: _365  and  _366
REMARK  144  A    between atoms: _365  and  _368
REMARK  145  A    between atoms: _368  and  _369
REMARK  146  A    between atoms: _369  and  _370
REMARK  147  A    between atoms: _370  and  _371
REMARK  148  A    between atoms: _371  and  _372
REMARK  149  A    between atoms: _376  and  _378
REMARK  150  A    between atoms: _378  and  _379
REMARK  151  A    between atoms: _378  and  _381
REMARK  152  A    between atoms: _381  and  _382
REMARK  153  A    between atoms: _385  and  _387
REMARK  154  A    between atoms: _387  and  _388
REMARK  155  A    between atoms: _387  and  _390
REMARK  156  A    between atoms: _390  and  _391
REMARK  157  A    between atoms: _396  and  _398
REMARK  158  A    between atoms: _398  and  _399
REMARK  159  A    between atoms: _401  and  _403
REMARK  160  A    between atoms: _403  and  _404
REMARK  161  A    between atoms: _403  and  _406
REMARK  162  A    between atoms: _406  and  _407
REMARK  163  A    between atoms: _407  and  _408
REMARK  164  A    between atoms: _408  and  _409
REMARK  165  A    between atoms: _409  and  _410
REMARK  166  A    between atoms: _414  and  _416
REMARK  167  A    between atoms: _416  and  _417
REMARK  168  A    between atoms: _416  and  _419
REMARK  169  A    between atoms: _419  and  _420
REMARK  170  A    between atoms: _420  and  _421
REMARK  171  A    between atoms: _421  and  _422
REMARK  172  A    between atoms: _431  and  _433
REMARK  173  A    between atoms: _433  and  _434
REMARK  174  A    between atoms: _433  and  _436
REMARK  175  A    between atoms: _436  and  _437
REMARK  176  A    between atoms: _442  and  _444
REMARK  177  A    between atoms: _444  and  _445
REMARK  178  A    between atoms: _444  and  _447
REMARK  179  A    between atoms: _447  and  _448
REMARK  180  A    between atoms: _453  and  _454
REMARK  181  A    between atoms: _456  and  _458
REMARK  182  A    between atoms: _458  and  _459
REMARK  183  A    between atoms: _458  and  _461
REMARK  184  A    between atoms: _461  and  _462
REMARK  185  A    between atoms: _462  and  _463
REMARK  186  A    between atoms: _463  and  _464
REMARK  187  A    between atoms: _464  and  _465
REMARK  188  A    between atoms: _469  and  _471
REMARK  189  A    between atoms: _471  and  _472
REMARK  190  A    between atoms: _471  and  _474
REMARK  191  A    between atoms: _474  and  _475
REMARK  192  A    between atoms: _477  and  _479
REMARK  193  A    between atoms: _479  and  _480
REMARK  194  A    between atoms: _479  and  _482
REMARK  195  A    between atoms: _482  and  _483
REMARK  196  A    between atoms: _486  and  _488
REMARK  197  A    between atoms: _488  and  _489
REMARK  198  A    between atoms: _488  and  _491
REMARK  199  A    between atoms: _491  and  _492
REMARK  200  A    between atoms: _492  and  _493
REMARK  201  A    between atoms: _496  and  _498
REMARK  202  A    between atoms: _498  and  _499
REMARK  203  A    between atoms: _502  and  _504
REMARK  204  A    between atoms: _504  and  _505
REMARK  205  A    between atoms: _504  and  _507
REMARK  206  A    between atoms: _507  and  _508
REMARK  207  A    between atoms: _510  and  _512
REMARK  208  A    between atoms: _512  and  _513
REMARK  209  A    between atoms: _515  and  _517
REMARK  210  A    between atoms: _517  and  _518
REMARK  211  A    between atoms: _517  and  _520
REMARK  212  A    between atoms: _520  and  _521
REMARK  213  A    between atoms: _524  and  _526
REMARK  214  A    between atoms: _526  and  _527
REMARK  215  A    between atoms: _529  and  _531
REMARK  216  A    between atoms: _531  and  _532
REMARK  217  A    between atoms: _531  and  _534
REMARK  218  A    between atoms: _534  and  _535
REMARK  219  A    between atoms: _540  and  _542
REMARK  220  A    between atoms: _542  and  _543
REMARK  221  A    between atoms: _542  and  _545
REMARK  222  A    between atoms: _545  and  _546
REMARK  223  A    between atoms: _546  and  _547
REMARK  224  A    between atoms: _554  and  _555
REMARK  225  A    between atoms: _555  and  _571
REMARK  226  A    between atoms: _556  and  _558
REMARK  227  A    between atoms: _558  and  _559
REMARK  228  A    between atoms: _559  and  _560
REMARK  229  A    between atoms: _564  and  _566
REMARK  230  A    between atoms: _566  and  _567
REMARK  231  A    between atoms: _566  and  _574
REMARK  232  A    between atoms: _567  and  _568
REMARK  233  A    between atoms: _568  and  _569
REMARK  234  A    between atoms: _569  and  _570
REMARK  235  A    between atoms: _570  and  _571
REMARK  236  A    between atoms: _576  and  _578
REMARK  237  A    between atoms: _578  and  _579
REMARK  238  A    between atoms: _578  and  _581
REMARK  239  A    between atoms: _581  and  _582
REMARK  240  A    between atoms: _585  and  _587
REMARK  241  A    between atoms: _587  and  _588
REMARK  242  A    between atoms: _590  and  _592
REMARK  243  A    between atoms: _592  and  _593
REMARK  244  A    between atoms: _596  and  _598
REMARK  245  A    between atoms: _598  and  _599
REMARK  246  A    between atoms: _598  and  _601
REMARK  247  A    between atoms: _601  and  _602
REMARK  248  A    between atoms: _607  and  _608
REMARK                            x       y       z     vdW  Elec       q    Type
REMARK                         _______ _______ _______ _____ _____    ______ ____
ROOT
ATOM      1  C   GLY A   2      37.990  14.449  23.520  0.00  0.00    +0.243 C 
ATOM      2  O   GLY A   2      37.605  13.280  23.662  0.00  0.00    -0.273 OA
ATOM      3  N   VAL A   3      37.168  15.444  23.273  0.00  0.00    -0.297 N 
ATOM      4  H   VAL A   3      37.536  16.357  22.936  0.00  0.00    +0.150 HD
ENDROOT
BRANCH   1   5
ATOM      5  CA  GLY A   2      39.443  14.813  23.635  0.00  0.00    +0.176 C 
BRANCH   5   8
ATOM      6  C   ASN A   1      40.514  13.275  25.152  0.00  0.00    +0.239 C 
ATOM      7  O   ASN A   1      40.449  14.069  26.112  0.00  0.00    -0.274 OA
ATOM      8  N   GLY A   2      40.166  13.610  23.900  0.00  0.00    -0.296 N 
ATOM      9  H   GLY A   2      40.427  12.984  23.111  0.00  0.00    +0.150 HD
BRANCH   6  10
ATOM     10  CA  ASN A   1      41.014  11.886  25.338  0.00  0.00    +0.154 C 
BRANCH  10  11
ATOM     11  N   ASN A   1      41.998  11.771  26.397  0.00  0.00    -0.238 NA
ATOM     12  H   ASN A   1      41.831  12.199  27.330  0.00  0.00    +0.142 HD
ENDBRANCH  10  11
BRANCH  10  13
ATOM     13  CB  ASN A   1      39.833  10.909  25.543  0.00  0.00    +0.111 C 
BRANCH  13  14
ATOM     14  CG  ASN A   1      38.868  11.361  26.657  0.00  0.00    +0.221 C 
ATOM     15  OD1 ASN A   1      39.149  11.171  27.854  0.00  0.00    -0.275 OA
ATOM     16  ND2 ASN A   1      37.727  11.907  26.258  0.00  0.00    -0.329 N 
ATOM     17 HD21 ASN A   1      37.017  12.199  26.960  0.00  0.00    +0.145 HD
ATOM     18 HD22 ASN A   1      37.542  12.043  25.244  0.00  0.00    +0.145 HD
ENDBRANCH  13  14
ENDBRANCH  10  13
ENDBRANCH   6  10
ENDBRANCH   5   8
ENDBRANCH   1   5
BRANCH   3  19
ATOM     19  CA  VAL A   3      35.703  15.255  23.479  0.00  0.00    +0.149 C 
BRANCH  19  20
ATOM     20  C   VAL A   3      34.839  15.385  22.231  0.00  0.00    +0.241 C 
ATOM     21  O   VAL A   3      33.608  15.356  22.302  0.00  0.00    -0.273 OA
ATOM     22  N   ALA A   4      35.499  15.513  21.068  0.00  0.00    -0.298 N 
ATOM     23  H   ALA A   4      36.521  15.705  21.090  0.00  0.00    +0.150 HD
BRANCH  22  24
ATOM     24  CA  ALA A   4      34.821  15.390  19.753  0.00  0.00    +0.137 C 
ATOM     25  CB  ALA A   4      34.080  16.638  19.386  0.00  0.00    +0.030 C 
BRANCH  24  26
ATOM     26  C   ALA A   4      35.950  15.059  18.737  0.00  0.00    +0.227 C 
ATOM     27  O   ALA A   4      37.130  15.340  18.978  0.00  0.00    -0.286 OA
ENDBRANCH  24  26
ENDBRANCH  22  24
ENDBRANCH  19  20
BRANCH  19  28
ATOM     28  CB  VAL A   3      35.198  16.240  24.589  0.00  0.00    +0.027 C 
ATOM     29  CG2 VAL A   3      35.763  15.749  25.987  0.00  0.00    +0.002 C 
ATOM     30  CG1 VAL A   3      35.557  17.725  24.254  0.00  0.00    +0.002 C 
ENDBRANCH  19  28
ENDBRANCH   3  19
TORSDOF 11
REMARK  Name = ../refined-set-2016/4el5/4el5_pocket.pdb
REMARK  248 active torsions:
REMARK  status: ('A' for Active; 'I' for Inactive)
REMARK    1  A    between atoms: _1  and  _3
REMARK    2  A    between atoms: _3  and  _4
REMARK    3  A    between atoms: _3  and  _6
REMARK    4  A    between atoms: _6  and  _7
REMARK    5  A    between atoms: _12  and  _13
REMARK    6  A    between atoms: _15  and  _17
REMARK    7  A    between atoms: _17  and  _18
REMARK    8  A    between atoms: _17  and  _20
REMARK    9  A    between atoms: _20  and  _21
REMARK   10  A    between atoms: _21  and  _22
REMARK   11  A    between atoms: _25  and  _27
REMARK   12  A    between atoms: _27  and  _28
REMARK   13  A    between atoms: _27  and  _30
REMARK   14  A    between atoms: _30  and  _31
REMARK   15  A    between atoms: _36  and  _38
REMARK   16  A    between atoms: _38  and  _39
REMARK   17  A    between atoms: _41  and  _43
REMARK   18  A    between atoms: _43  and  _44
REMARK   19  A    between atoms: _46  and  _48
REMARK   20  A    between atoms: _48  and  _49
REMARK   21  A    between atoms: _48  and  _51
REMARK   22  A    between atoms: _51  and  _52
REMARK   23  A    between atoms: _55  and  _57
REMARK   24  A    between atoms: _57  and  _58
REMARK   25  A    between atoms: _60  and  _62
REMARK   26  A    between atoms: _62  and  _63
REMARK   27  A    between atoms: _62  and  _65
REMARK   28  A    between atoms: _65  and  _66
REMARK   29  A    between atoms: _66  and  _67
REMARK   30  A    between atoms: _67  and  _68
REMARK   31  A    between atoms: _77  and  _79
REMARK   32  A    between atoms: _79  and  _80
REMARK   33  A    between atoms: _79  and  _82
REMARK   34  A    between atoms: _82  and  _83
REMARK   35  A    between atoms: _86  and  _88
REMARK   36  A    between atoms: _88  and  _89
REMARK   37  A    between atoms: _92  and  _94
REMARK   38  A    between atoms: _94  and  _95
REMARK   39  A    between atoms: _94  and  _97
REMARK   40  A    between atoms: _97  and  _98
REMARK   41  A    between atoms: _104  and  _106
REMARK   42  A    between atoms: _106  and  _107
REMARK   43  A    between atoms: _106  and  _109
REMARK   44  A    between atoms: _109  and  _110
REMARK   45  A    between atoms: _115  and  _117
REMARK   46  A    between atoms: _117  and  _118
REMARK   47  A    between atoms: _117  and  _120
REMARK   48  A    between atoms: _120  and  _121
REMARK   49  A    between atoms: _124  and  _126
REMARK   50  A    between atoms: _126  and  _127
REMARK   51  A    between atoms: _126  and  _129
REMARK   52  A    between atoms: _129  and  _130
REMARK   53  A    between atoms: _135  and  _137
REMARK   54  A    between atoms: _137  and  _138
REMARK   55  A    between atoms: _137  and  _140
REMARK   56  A    between atoms: _140  and  _141
REMARK   57  A    between atoms: _147  and  _149
REMARK   58  A    between atoms: _149  and  _150
REMARK   59  A    between atoms: _149  and  _152
REMARK   60  A    between atoms: _152  and  _153
REMARK   61  A    between atoms: _159  and  _161
REMARK   62  A    between atoms: _161  and  _162
REMARK   63  A    between atoms: _161  and  _164
REMARK   64  A    between atoms: _164  and  _165
REMARK   65  A    between atoms: _165  and  _166
REMARK   66  A    between atoms: _166  and  _167
REMARK   67  A    between atoms: _176  and  _178
REMARK   68  A    between atoms: _178  and  _179
REMARK   69  A    between atoms: _178  and  _181
REMARK   70  A    between atoms: _181  and  _182
REMARK   71  A    between atoms: _187  and  _189
REMARK   72  A    between atoms: _189  and  _190
REMARK   73  A    between atoms: _189  and  _192
REMARK   74  A    between atoms: _192  and  _193
REMARK   75  A    between atoms: _196  and  _198
REMARK   76  A    between atoms: _198  and  _199
REMARK   77  A    between atoms: _198  and  _201
REMARK   78  A    between atoms: _201  and  _202
REMARK   79  A    between atoms: _205  and  _207
REMARK   80  A    between atoms: _207  and  _208
REMARK   81  A    between atoms: _207  and  _210
REMARK   82  A    between atoms: _210  and  _211
REMARK   83  A    between atoms: _216  and  _218
REMARK   84  A    between atoms: _218  and  _219
REMARK   85  A    between atoms: _218  and  _221
REMARK   86  A    between atoms: _221  and  _222
REMARK   87  A    between atoms: _227  and  _228
REMARK   88  A    between atoms: _230  and  _232
REMARK   89  A    between atoms: _232  and  _233
REMARK   90  A    between atoms: _232  and  _235
REMARK   91  A    between atoms: _235  and  _236
REMARK   92  A    between atoms: _239  and  _241
REMARK   93  A    between atoms: _241  and  _242
REMARK   94  A    between atoms: _241  and  _244
REMARK   95  A    between atoms: _244  and  _245
REMARK   96  A    between atoms: _250  and  _252
REMARK   97  A    between atoms: _252  and  _253
REMARK   98  A    between atoms: _252  and  _255
REMARK   99  A    between atoms: _255  and  _256
REMARK  100  A    between atoms: _261  and  _263
REMARK  101  A    between atoms: _263  and  _264
REMARK  102  A    between atoms: _263  and  _266
REMARK  103  A    between atoms: _266  and  _267
REMARK  104  A    between atoms: _270  and  _272
REMARK  105  A    between atoms: _272  and  _273
REMARK  106  A    between atoms: _272  and  _275
REMARK  107  A    between atoms: _278  and  _280
REMARK  108  A    between atoms: _280  and  _281
REMARK  109  A    between atoms: _280  and  _283
REMARK  110  A    between atoms: _283  and  _284
REMARK  111  A    between atoms: _287  and  _289
REMARK  112  A    between atoms: _289  and  _290
REMARK  113  A    between atoms: _289  and  _292
REMARK  114  A    between atoms: _292  and  _293
REMARK  115  A    between atoms: _293  and  _294
REMARK  116  A    between atoms: _297  and  _299
REMARK  117  A    between atoms: _299  and  _300
REMARK  118  A    between atoms: _303  and  _305
REMARK  119  A    between atoms: _305  and  _306
REMARK  120  A    between atoms: _305  and  _308
REMARK  121  A    between atoms: _308  and  _309
REMARK  122  A    between atoms: _312  and  _314
REMARK  123  A    between atoms: _314  and  _315
REMARK  124  A    between atoms: _314  and  _317
REMARK  125  A    between atoms: _317  and  _318
REMARK  126  A    between atoms: _318  and  _319
REMARK  127  A    between atoms: _322  and  _324
REMARK  128  A    between atoms: _324  and  _325
REMARK  129  A    between atoms: _324  and  _327
REMARK  130  A    between atoms: _327  and  _328
REMARK  131  A    between atoms: _333  and  _335
REMARK  132  A    between atoms: _335  and  _336
REMARK  133  A    between atoms: _338  and  _340
REMARK  134  A    between atoms: _340  and  _341
REMARK  135  A    between atoms: _340  and  _343
REMARK  136  A    between atoms: _346  and  _348
REMARK  137  A    between atoms: _348  and  _349
REMARK  138  A    between atoms: _352  and  _354
REMARK  139  A    between atoms: _354  and  _355
REMARK  140  A    between atoms: _354  and  _357
REMARK  141  A    between atoms: _357  and  _358
REMARK  142  A    between atoms: _363  and  _365
REMARK  143  A    between atoms: _365  and  _366
REMARK  144  A    between atoms: _365  and  _368
REMARK  145  A    between atoms: _368  and  _369
REMARK  146  A    between atoms: _369  and  _370
REMARK  147  A    between atoms: _370  and  _371
REMARK  148  A    between atoms: _371  and  _372
REMARK  149  A    between atoms: _376  and  _378
REMARK  150  A    between atoms: _378  and  _379
REMARK  151  A    between atoms: _378  and  _381
REMARK  152  A    between atoms: _381  and  _382
REMARK  153  A    between atoms: _385  and  _387
REMARK  154  A    between atoms: _387  and  _388
REMARK  155  A    between atoms: _387  and  _390
REMARK  156  A    between atoms: _390  and  _391
REMARK  157  A    between atoms: _396  and  _398
REMARK  158  A    between atoms: _398  and  _399
REMARK  159  A    between atoms: _401  and  _403
REMARK  160  A    between atoms: _403  and  _404
REMARK  161  A    between atoms: _403  and  _406
REMARK  162  A    between atoms: _406  and  _407
REMARK  163  A    between atoms: _407  and  _408
REMARK  164  A    between atoms: _408  and  _409
REMARK  165  A    between atoms: _409  and  _410
REMARK  166  A    between atoms: _414  and  _416
REMARK  167  A    between atoms: _416  and  _417
REMARK  168  A    between atoms: _416  and  _419
REMARK  169  A    between atoms: _419  and  _420
REMARK  170  A    between atoms: _420  and  _421
REMARK  171  A    between atoms: _421  and  _422
REMARK  172  A    between atoms: _431  and  _433
REMARK  173  A    between atoms: _433  and  _434
REMARK  174  A    between atoms: _433  and  _436
REMARK  175  A    between atoms: _436  and  _437
REMARK  176  A    between atoms: _442  and  _444
REMARK  177  A    between atoms: _444  and  _445
REMARK  178  A    between atoms: _444  and  _447
REMARK  179  A    between atoms: _447  and  _448
REMARK  180  A    between atoms: _453  and  _454
REMARK  181  A    between atoms: _456  and  _458
REMARK  182  A    between atoms: _458  and  _459
REMARK  183  A    between atoms: _458  and  _461
REMARK  184  A    between atoms: _461  and  _462
REMARK  185  A    between atoms: _462  and  _463
REMARK  186  A    between atoms: _463  and  _464
REMARK  187  A    between atoms: _464  and  _465
REMARK  188  A    between atoms: _469  and  _471
REMARK  189  A    between atoms: _471  and  _472
REMARK  190  A    between atoms: _471  and  _474
REMARK  191  A    between atoms: _474  and  _475
REMARK  192  A    between atoms: _477  and  _479
REMARK  193  A    between atoms: _479  and  _480
REMARK  194  A    between atoms: _479  and  _482
REMARK  195  A    between atoms: _482  and  _483
REMARK  196  A    between atoms: _486  and  _488
REMARK  197  A    between atoms: _488  and  _489
REMARK  198  A    between atoms: _488  and  _491
REMARK  199  A    between atoms: _491  and  _492
REMARK  200  A    between atoms: _492  and  _493
REMARK  201  A    between atoms: _496  and  _498
REMARK  202  A    between atoms: _498  and  _499
REMARK  203  A    between atoms: _502  and  _504
REMARK  204  A    between atoms: _504  and  _505
REMARK  205  A    between atoms: _504  and  _507
REMARK  206  A    between atoms: _507  and  _508
REMARK  207  A    between atoms: _510  and  _512
REMARK  208  A    between atoms: _512  and  _513
REMARK  209  A    between atoms: _515  and  _517
REMARK  210  A    between atoms: _517  and  _518
REMARK  211  A    between atoms: _517  and  _520
REMARK  212  A    between atoms: _520  and  _521
REMARK  213  A    between atoms: _524  and  _526
REMARK  214  A    between atoms: _526  and  _527
REMARK  215  A    between atoms: _529  and  _531
REMARK  216  A    between atoms: _531  and  _532
REMARK  217  A    between atoms: _531  and  _534
REMARK  218  A    between atoms: _534  and  _535
REMARK  219  A    between atoms: _540  and  _542
REMARK  220  A    between atoms: _542  and  _543
REMARK  221  A    between atoms: _542  and  _545
REMARK  222  A    between atoms: _545  and  _546
REMARK  223  A    between atoms: _546  and  _547
REMARK  224  A    between atoms: _554  and  _555
REMARK  225  A    between atoms: _555  and  _571
REMARK  226  A    between atoms: _556  and  _558
REMARK  227  A    between atoms: _558  and  _559
REMARK  228  A    between atoms: _559  and  _560
REMARK  229  A    between atoms: _564  and  _566
REMARK  230  A    between atoms: _566  and  _567
REMARK  231  A    between atoms: _566  and  _574
REMARK  232  A    between atoms: _567  and  _568
REMARK  233  A    between atoms: _568  and  _569
REMARK  234  A    between atoms: _569  and  _570
REMARK  235  A    between atoms: _570  and  _571
REMARK  236  A    between atoms: _576  and  _578
REMARK  237  A    between atoms: _578  and  _579
REMARK  238  A    between atoms: _578  and  _581
REMARK  239  A    between atoms: _581  and  _582
REMARK  240  A    between atoms: _585  and  _587
REMARK  241  A    between atoms: _587  and  _588
REMARK  242  A    between atoms: _590  and  _592
REMARK  243  A    between atoms: _592  and  _593
REMARK  244  A    between atoms: _596  and  _598
REMARK  245  A    between atoms: _598  and  _599
REMARK  246  A    between atoms: _598  and  _601
REMARK  247  A    between atoms: _601  and  _602
REMARK  248  A    between atoms: _607  and  _608
REMARK                            x       y       z     vdW  Elec       q    Type
REMARK                         _______ _______ _______ _____ _____    ______ ____
ROOT
ATOM      1  CB  HIS A   1      38.017  18.606  20.071  0.00  0.00    +0.072 C 
ENDROOT
BRANCH   1   2
ATOM      2  CG  HIS A   1      38.701  18.737  21.403  0.00  0.00    +0.082 A 
ATOM      3  CD2 HIS A   1      38.644  17.963  22.502  0.00  0.00    +0.115 A 
ATOM      4  NE2 HIS A   1      39.496  18.516  23.439  0.00  0.00    -0.221 NA
ATOM      5  CE1 HIS A   1      40.043  19.606  22.931  0.00  0.00    +0.199 A 
ATOM      6  ND1 HIS A   1      39.591  19.753  21.696  0.00  0.00    -0.227 NA
ENDBRANCH   1   2
BRANCH   1   7
ATOM      7  CA  HIS A   1      39.005  18.412  18.887  0.00  0.00    +0.139 C 
BRANCH   7   8
ATOM      8  N   HIS A   1      38.299  17.883  17.733  0.00  0.00    -0.239 NA
ATOM      9  H   HIS A   1      37.349  17.483  17.874  0.00  0.00    +0.142 HD
ENDBRANCH   7   8
BRANCH   7  10
ATOM     10  C   HIS A   1      40.136  17.394  19.189  0.00  0.00    +0.224 C 
ATOM     11  O   HIS A   1      41.271  17.810  19.306  0.00  0.00    -0.287 OA
ENDBRANCH   7  10
ENDBRANCH   1   7
TORSDOF 4
REMARK  Name = ../refined-set-2016/4el5/4el5_pocket.pdb
REMARK  248 active torsions:
REMARK  status: ('A' for Active; 'I' for Inactive)
REMARK    1  A    between atoms: _1  and  _3
REMARK    2  A    between atoms: _3  and  _4
REMARK    3  A    between atoms: _3  and  _6
REMARK    4  A    between atoms: _6  and  _7
REMARK    5  A    between atoms: _12  and  _13
REMARK    6  A    between atoms: _15  and  _17
REMARK    7  A    between atoms: _17  and  _18
REMARK    8  A    between atoms: _17  and  _20
REMARK    9  A    between atoms: _20  and  _21
REMARK   10  A    between atoms: _21  and  _22
REMARK   11  A    between atoms: _25  and  _27
REMARK   12  A    between atoms: _27  and  _28
REMARK   13  A    between atoms: _27  and  _30
REMARK   14  A    between atoms: _30  and  _31
REMARK   15  A    between atoms: _36  and  _38
REMARK   16  A    between atoms: _38  and  _39
REMARK   17  A    between atoms: _41  and  _43
REMARK   18  A    between atoms: _43  and  _44
REMARK   19  A    between atoms: _46  and  _48
REMARK   20  A    between atoms: _48  and  _49
REMARK   21  A    between atoms: _48  and  _51
REMARK   22  A    between atoms: _51  and  _52
REMARK   23  A    between atoms: _55  and  _57
REMARK   24  A    between atoms: _57  and  _58
REMARK   25  A    between atoms: _60  and  _62
REMARK   26  A    between atoms: _62  and  _63
REMARK   27  A    between atoms: _62  and  _65
REMARK   28  A    between atoms: _65  and  _66
REMARK   29  A    between atoms: _66  and  _67
REMARK   30  A    between atoms: _67  and  _68
REMARK   31  A    between atoms: _77  and  _79
REMARK   32  A    between atoms: _79  and  _80
REMARK   33  A    between atoms: _79  and  _82
REMARK   34  A    between atoms: _82  and  _83
REMARK   35  A    between atoms: _86  and  _88
REMARK   36  A    between atoms: _88  and  _89
REMARK   37  A    between atoms: _92  and  _94
REMARK   38  A    between atoms: _94  and  _95
REMARK   39  A    between atoms: _94  and  _97
REMARK   40  A    between atoms: _97  and  _98
REMARK   41  A    between atoms: _104  and  _106
REMARK   42  A    between atoms: _106  and  _107
REMARK   43  A    between atoms: _106  and  _109
REMARK   44  A    between atoms: _109  and  _110
REMARK   45  A    between atoms: _115  and  _117
REMARK   46  A    between atoms: _117  and  _118
REMARK   47  A    between atoms: _117  and  _120
REMARK   48  A    between atoms: _120  and  _121
REMARK   49  A    between atoms: _124  and  _126
REMARK   50  A    between atoms: _126  and  _127
REMARK   51  A    between atoms: _126  and  _129
REMARK   52  A    between atoms: _129  and  _130
REMARK   53  A    between atoms: _135  and  _137
REMARK   54  A    between atoms: _137  and  _138
REMARK   55  A    between atoms: _137  and  _140
REMARK   56  A    between atoms: _140  and  _141
REMARK   57  A    between atoms: _147  and  _149
REMARK   58  A    between atoms: _149  and  _150
REMARK   59  A    between atoms: _149  and  _152
REMARK   60  A    between atoms: _152  and  _153
REMARK   61  A    between atoms: _159  and  _161
REMARK   62  A    between atoms: _161  and  _162
REMARK   63  A    between atoms: _161  and  _164
REMARK   64  A    between atoms: _164  and  _165
REMARK   65  A    between atoms: _165  and  _166
REMARK   66  A    between atoms: _166  and  _167
REMARK   67  A    between atoms: _176  and  _178
REMARK   68  A    between atoms: _178  and  _179
REMARK   69  A    between atoms: _178  and  _181
REMARK   70  A    between atoms: _181  and  _182
REMARK   71  A    between atoms: _187  and  _189
REMARK   72  A    between atoms: _189  and  _190
REMARK   73  A    between atoms: _189  and  _192
REMARK   74  A    between atoms: _192  and  _193
REMARK   75  A    between atoms: _196  and  _198
REMARK   76  A    between atoms: _198  and  _199
REMARK   77  A    between atoms: _198  and  _201
REMARK   78  A    between atoms: _201  and  _202
REMARK   79  A    between atoms: _205  and  _207
REMARK   80  A    between atoms: _207  and  _208
REMARK   81  A    between atoms: _207  and  _210
REMARK   82  A    between atoms: _210  and  _211
REMARK   83  A    between atoms: _216  and  _218
REMARK   84  A    between atoms: _218  and  _219
REMARK   85  A    between atoms: _218  and  _221
REMARK   86  A    between atoms: _221  and  _222
REMARK   87  A    between atoms: _227  and  _228
REMARK   88  A    between atoms: _230  and  _232
REMARK   89  A    between atoms: _232  and  _233
REMARK   90  A    between atoms: _232  and  _235
REMARK   91  A    between atoms: _235  and  _236
REMARK   92  A    between atoms: _239  and  _241
REMARK   93  A    between atoms: _241  and  _242
REMARK   94  A    between atoms: _241  and  _244
REMARK   95  A    between atoms: _244  and  _245
REMARK   96  A    between atoms: _250  and  _252
REMARK   97  A    between atoms: _252  and  _253
REMARK   98  A    between atoms: _252  and  _255
REMARK   99  A    between atoms: _255  and  _256
REMARK  100  A    between atoms: _261  and  _263
REMARK  101  A    between atoms: _263  and  _264
REMARK  102  A    between atoms: _263  and  _266
REMARK  103  A    between atoms: _266  and  _267
REMARK  104  A    between atoms: _270  and  _272
REMARK  105  A    between atoms: _272  and  _273
REMARK  106  A    between atoms: _272  and  _275
REMARK  107  A    between atoms: _278  and  _280
REMARK  108  A    between atoms: _280  and  _281
REMARK  109  A    between atoms: _280  and  _283
REMARK  110  A    between atoms: _283  and  _284
REMARK  111  A    between atoms: _287  and  _289
REMARK  112  A    between atoms: _289  and  _290
REMARK  113  A    between atoms: _289  and  _292
REMARK  114  A    between atoms: _292  and  _293
REMARK  115  A    between atoms: _293  and  _294
REMARK  116  A    between atoms: _297  and  _299
REMARK  117  A    between atoms: _299  and  _300
REMARK  118  A    between atoms: _303  and  _305
REMARK  119  A    between atoms: _305  and  _306
REMARK  120  A    between atoms: _305  and  _308
REMARK  121  A    between atoms: _308  and  _309
REMARK  122  A    between atoms: _312  and  _314
REMARK  123  A    between atoms: _314  and  _315
REMARK  124  A    between atoms: _314  and  _317
REMARK  125  A    between atoms: _317  and  _318
REMARK  126  A    between atoms: _318  and  _319
REMARK  127  A    between atoms: _322  and  _324
REMARK  128  A    between atoms: _324  and  _325
REMARK  129  A    between atoms: _324  and  _327
REMARK  130  A    between atoms: _327  and  _328
REMARK  131  A    between atoms: _333  and  _335
REMARK  132  A    between atoms: _335  and  _336
REMARK  133  A    between atoms: _338  and  _340
REMARK  134  A    between atoms: _340  and  _341
REMARK  135  A    between atoms: _340  and  _343
REMARK  136  A    between atoms: _346  and  _348
REMARK  137  A    between atoms: _348  and  _349
REMARK  138  A    between atoms: _352  and  _354
REMARK  139  A    between atoms: _354  and  _355
REMARK  140  A    between atoms: _354  and  _357
REMARK  141  A    between atoms: _357  and  _358
REMARK  142  A    between atoms: _363  and  _365
REMARK  143  A    between atoms: _365  and  _366
REMARK  144  A    between atoms: _365  and  _368
REMARK  145  A    between atoms: _368  and  _369
REMARK  146  A    between atoms: _369  and  _370
REMARK  147  A    between atoms: _370  and  _371
REMARK  148  A    between atoms: _371  and  _372
REMARK  149  A    between atoms: _376  and  _378
REMARK  150  A    between atoms: _378  and  _379
REMARK  151  A    between atoms: _378  and  _381
REMARK  152  A    between atoms: _381  and  _382
REMARK  153  A    between atoms: _385  and  _387
REMARK  154  A    between atoms: _387  and  _388
REMARK  155  A    between atoms: _387  and  _390
REMARK  156  A    between atoms: _390  and  _391
REMARK  157  A    between atoms: _396  and  _398
REMARK  158  A    between atoms: _398  and  _399
REMARK  159  A    between atoms: _401  and  _403
REMARK  160  A    between atoms: _403  and  _404
REMARK  161  A    between atoms: _403  and  _406
REMARK  162  A    between atoms: _406  and  _407
REMARK  163  A    between atoms: _407  and  _408
REMARK  164  A    between atoms: _408  and  _409
REMARK  165  A    between atoms: _409  and  _410
REMARK  166  A    between atoms: _414  and  _416
REMARK  167  A    between atoms: _416  and  _417
REMARK  168  A    between atoms: _416  and  _419
REMARK  169  A    between atoms: _419  and  _420
REMARK  170  A    between atoms: _420  and  _421
REMARK  171  A    between atoms: _421  and  _422
REMARK  172  A    between atoms: _431  and  _433
REMARK  173  A    between atoms: _433  and  _434
REMARK  174  A    between atoms: _433  and  _436
REMARK  175  A    between atoms: _436  and  _437
REMARK  176  A    between atoms: _442  and  _444
REMARK  177  A    between atoms: _444  and  _445
REMARK  178  A    between atoms: _444  and  _447
REMARK  179  A    between atoms: _447  and  _448
REMARK  180  A    between atoms: _453  and  _454
REMARK  181  A    between atoms: _456  and  _458
REMARK  182  A    between atoms: _458  and  _459
REMARK  183  A    between atoms: _458  and  _461
REMARK  184  A    between atoms: _461  and  _462
REMARK  185  A    between atoms: _462  and  _463
REMARK  186  A    between atoms: _463  and  _464
REMARK  187  A    between atoms: _464  and  _465
REMARK  188  A    between atoms: _469  and  _471
REMARK  189  A    between atoms: _471  and  _472
REMARK  190  A    between atoms: _471  and  _474
REMARK  191  A    between atoms: _474  and  _475
REMARK  192  A    between atoms: _477  and  _479
REMARK  193  A    between atoms: _479  and  _480
REMARK  194  A    between atoms: _479  and  _482
REMARK  195  A    between atoms: _482  and  _483
REMARK  196  A    between atoms: _486  and  _488
REMARK  197  A    between atoms: _488  and  _489
REMARK  198  A    between atoms: _488  and  _491
REMARK  199  A    between atoms: _491  and  _492
REMARK  200  A    between atoms: _492  and  _493
REMARK  201  A    between atoms: _496  and  _498
REMARK  202  A    between atoms: _498  and  _499
REMARK  203  A    between atoms: _502  and  _504
REMARK  204  A    between atoms: _504  and  _505
REMARK  205  A    between atoms: _504  and  _507
REMARK  206  A    between atoms: _507  and  _508
REMARK  207  A    between atoms: _510  and  _512
REMARK  208  A    between atoms: _512  and  _513
REMARK  209  A    between atoms: _515  and  _517
REMARK  210  A    between atoms: _517  and  _518
REMARK  211  A    between atoms: _517  and  _520
REMARK  212  A    between atoms: _520  and  _521
REMARK  213  A    between atoms: _524  and  _526
REMARK  214  A    between atoms: _526  and  _527
REMARK  215  A    between atoms: _529  and  _531
REMARK  216  A    between atoms: _531  and  _532
REMARK  217  A    between atoms: _531  and  _534
REMARK  218  A    between atoms: _534  and  _535
REMARK  219  A    between atoms: _540  and  _542
REMARK  220  A    between atoms: _542  and  _543
REMARK  221  A    between atoms: _542  and  _545
REMARK  222  A    between atoms: _545  and  _546
REMARK  223  A    between atoms: _546  and  _547
REMARK  224  A    between atoms: _554  and  _555
REMARK  225  A    between atoms: _555  and  _571
REMARK  226  A    between atoms: _556  and  _558
REMARK  227  A    between atoms: _558  and  _559
REMARK  228  A    between atoms: _559  and  _560
REMARK  229  A    between atoms: _564  and  _566
REMARK  230  A    between atoms: _566  and  _567
REMARK  231  A    between atoms: _566  and  _574
REMARK  232  A    between atoms: _567  and  _568
REMARK  233  A    between atoms: _568  and  _569
REMARK  234  A    between atoms: _569  and  _570
REMARK  235  A    between atoms: _570  and  _571
REMARK  236  A    between atoms: _576  and  _578
REMARK  237  A    between atoms: _578  and  _579
REMARK  238  A    between atoms: _578  and  _581
REMARK  239  A    between atoms: _581  and  _582
REMARK  240  A    between atoms: _585  and  _587
REMARK  241  A    between atoms: _587  and  _588
REMARK  242  A    between atoms: _590  and  _592
REMARK  243  A    between atoms: _592  and  _593
REMARK  244  A    between atoms: _596  and  _598
REMARK  245  A    between atoms: _598  and  _599
REMARK  246  A    between atoms: _598  and  _601
REMARK  247  A    between atoms: _601  and  _602
REMARK  248  A    between atoms: _607  and  _608
REMARK                            x       y       z     vdW  Elec       q    Type
REMARK                         _______ _______ _______ _____ _____    ______ ____
ROOT
ATOM      1  CA  THR A   2      32.712  12.340  21.503  0.00  0.00    +0.176 C 
ENDROOT
BRANCH   1   4
ATOM      2  C   LYS A   1      34.362  11.270  22.888  0.00  0.00    +0.238 C 
ATOM      3  O   LYS A   1      34.300  12.227  23.675  0.00  0.00    -0.274 OA
ATOM      4  N   THR A   2      33.608  11.233  21.796  0.00  0.00    -0.295 N 
ATOM      5  H   THR A   2      33.658  10.417  21.154  0.00  0.00    +0.150 HD
BRANCH   2   6
ATOM      6  CA  LYS A   1      35.327  10.136  23.118  0.00  0.00    +0.145 C 
BRANCH   6   7
ATOM      7  N   LYS A   1      36.606  10.578  22.619  0.00  0.00    -0.238 NA
ATOM      8  H   LYS A   1      36.905  11.559  22.793  0.00  0.00    +0.142 HD
ENDBRANCH   6   7
BRANCH   6   9
ATOM      9  CB  LYS A   1      35.428   9.745  24.635  0.00  0.00    +0.026 C 
BRANCH   9  10
ATOM     10  CG  LYS A   1      36.413   8.604  24.919  0.00  0.00    -0.000 C 
BRANCH  10  11
ATOM     11  CD  LYS A   1      35.772   7.207  24.610  0.00  0.00    -0.024 C 
BRANCH  11  12
ATOM     12  CE  LYS A   1      36.804   6.062  24.676  0.00  0.00    -0.086 C 
BRANCH  12  13
ATOM     13  NZ  LYS A   1      37.665   6.149  23.399  0.00  0.00    +0.380 N 
ATOM     14  HZ1 LYS A   1      38.375   5.389  23.409  0.00  0.00    -0.089 HD
ATOM     15  HZ2 LYS A   1      38.143   7.072  23.367  0.00  0.00    -0.089 HD
ATOM     16  HZ3 LYS A   1      37.055   6.044  22.563  0.00  0.00    -0.089 HD
ENDBRANCH  12  13
ENDBRANCH  11  12
ENDBRANCH  10  11
ENDBRANCH   9  10
ENDBRANCH   6   9
ENDBRANCH   2   6
ENDBRANCH   1   4
BRANCH   1  17
ATOM     17  C   THR A   2      31.666  12.396  22.636  0.00  0.00    +0.243 C 
ATOM     18  O   THR A   2      31.155  11.351  23.081  0.00  0.00    -0.273 OA
ATOM     19  N   ASN A   3      31.362  13.607  23.051  0.00  0.00    -0.297 N 
ATOM     20  H   ASN A   3      31.787  14.411  22.546  0.00  0.00    +0.150 HD
BRANCH  19  21
ATOM     21  CA  ASN A   3      30.448  13.912  24.198  0.00  0.00    +0.158 C 
BRANCH  21  22
ATOM     22  C   ASN A   3      29.047  13.485  23.805  0.00  0.00    +0.241 C 
ATOM     23  N   GLY A   4      28.151  13.462  24.779  0.00  0.00    -0.296 N 
ATOM     24  H   GLY A   4      28.477  13.689  25.740  0.00  0.00    +0.150 HD
ATOM     25  O   ASN A   3      28.791  13.181  22.625  0.00  0.00    -0.273 OA
BRANCH  23  26
ATOM     26  CA  GLY A   4      26.732  13.140  24.600  0.00  0.00    +0.163 C 
BRANCH  26  27
ATOM     27  C   GLY A   4      25.934  13.812  25.757  0.00  0.00    +0.229 C 
ATOM     28  O   GLY A   4      26.522  14.414  26.633  0.00  0.00    -0.286 OA
ENDBRANCH  26  27
ENDBRANCH  23  26
ENDBRANCH  21  22
BRANCH  21  29
ATOM     29  CB  ASN A   3      30.491  15.433  24.440  0.00  0.00    +0.114 C 
BRANCH  29  30
ATOM     30  CG  ASN A   3      31.622  15.841  25.389  0.00  0.00    +0.222 C 
ATOM     31  ND2 ASN A   3      32.277  14.884  25.948  0.00  0.00    -0.329 N 
ATOM     32 HD21 ASN A   3      33.077  15.099  26.576  0.00  0.00    +0.145 HD
ATOM     33 HD22 ASN A   3      32.006  13.896  25.771  0.00  0.00    +0.145 HD
ATOM     34  OD1 ASN A   3      31.902  17.015  25.565  0.00  0.00    -0.275 OA
ENDBRANCH  29  30
ENDBRANCH  21  29
ENDBRANCH  19  21
ENDBRANCH   1  17
BRANCH   1  35
ATOM     35  CB  THR A   2      31.997  12.126  20.120  0.00  0.00    +0.137 C 
ATOM     36  CG2 THR A   2      31.066  13.286  19.742  0.00  0.00    +0.034 C 
BRANCH  35  37
ATOM     37  OG1 THR A   2      32.988  11.944  19.093  0.00  0.00    -0.382 OA
ATOM     38  HG1 THR A   2      32.538  11.809  18.222  0.00  0.00    +0.210 HD
ENDBRANCH  35  37
ENDBRANCH   1  35
TORSDOF 17
REMARK  Name = ../refined-set-2016/4el5/4el5_pocket.pdb
REMARK  248 active torsions:
REMARK  status: ('A' for Active; 'I' for Inactive)
REMARK    1  A    between atoms: _1  and  _3
REMARK    2  A    between atoms: _3  and  _4
REMARK    3  A    between atoms: _3  and  _6
REMARK    4  A    between atoms: _6  and  _7
REMARK    5  A    between atoms: _12  and  _13
REMARK    6  A    between atoms: _15  and  _17
REMARK    7  A    between atoms: _17  and  _18
REMARK    8  A    between atoms: _17  and  _20
REMARK    9  A    between atoms: _20  and  _21
REMARK   10  A    between atoms: _21  and  _22
REMARK   11  A    between atoms: _25  and  _27
REMARK   12  A    between atoms: _27  and  _28
REMARK   13  A    between atoms: _27  and  _30
REMARK   14  A    between atoms: _30  and  _31
REMARK   15  A    between atoms: _36  and  _38
REMARK   16  A    between atoms: _38  and  _39
REMARK   17  A    between atoms: _41  and  _43
REMARK   18  A    between atoms: _43  and  _44
REMARK   19  A    between atoms: _46  and  _48
REMARK   20  A    between atoms: _48  and  _49
REMARK   21  A    between atoms: _48  and  _51
REMARK   22  A    between atoms: _51  and  _52
REMARK   23  A    between atoms: _55  and  _57
REMARK   24  A    between atoms: _57  and  _58
REMARK   25  A    between atoms: _60  and  _62
REMARK   26  A    between atoms: _62  and  _63
REMARK   27  A    between atoms: _62  and  _65
REMARK   28  A    between atoms: _65  and  _66
REMARK   29  A    between atoms: _66  and  _67
REMARK   30  A    between atoms: _67  and  _68
REMARK   31  A    between atoms: _77  and  _79
REMARK   32  A    between atoms: _79  and  _80
REMARK   33  A    between atoms: _79  and  _82
REMARK   34  A    between atoms: _82  and  _83
REMARK   35  A    between atoms: _86  and  _88
REMARK   36  A    between atoms: _88  and  _89
REMARK   37  A    between atoms: _92  and  _94
REMARK   38  A    between atoms: _94  and  _95
REMARK   39  A    between atoms: _94  and  _97
REMARK   40  A    between atoms: _97  and  _98
REMARK   41  A    between atoms: _104  and  _106
REMARK   42  A    between atoms: _106  and  _107
REMARK   43  A    between atoms: _106  and  _109
REMARK   44  A    between atoms: _109  and  _110
REMARK   45  A    between atoms: _115  and  _117
REMARK   46  A    between atoms: _117  and  _118
REMARK   47  A    between atoms: _117  and  _120
REMARK   48  A    between atoms: _120  and  _121
REMARK   49  A    between atoms: _124  and  _126
REMARK   50  A    between atoms: _126  and  _127
REMARK   51  A    between atoms: _126  and  _129
REMARK   52  A    between atoms: _129  and  _130
REMARK   53  A    between atoms: _135  and  _137
REMARK   54  A    between atoms: _137  and  _138
REMARK   55  A    between atoms: _137  and  _140
REMARK   56  A    between atoms: _140  and  _141
REMARK   57  A    between atoms: _147  and  _149
REMARK   58  A    between atoms: _149  and  _150
REMARK   59  A    between atoms: _149  and  _152
REMARK   60  A    between atoms: _152  and  _153
REMARK   61  A    between atoms: _159  and  _161
REMARK   62  A    between atoms: _161  and  _162
REMARK   63  A    between atoms: _161  and  _164
REMARK   64  A    between atoms: _164  and  _165
REMARK   65  A    between atoms: _165  and  _166
REMARK   66  A    between atoms: _166  and  _167
REMARK   67  A    between atoms: _176  and  _178
REMARK   68  A    between atoms: _178  and  _179
REMARK   69  A    between atoms: _178  and  _181
REMARK   70  A    between atoms: _181  and  _182
REMARK   71  A    between atoms: _187  and  _189
REMARK   72  A    between atoms: _189  and  _190
REMARK   73  A    between atoms: _189  and  _192
REMARK   74  A    between atoms: _192  and  _193
REMARK   75  A    between atoms: _196  and  _198
REMARK   76  A    between atoms: _198  and  _199
REMARK   77  A    between atoms: _198  and  _201
REMARK   78  A    between atoms: _201  and  _202
REMARK   79  A    between atoms: _205  and  _207
REMARK   80  A    between atoms: _207  and  _208
REMARK   81  A    between atoms: _207  and  _210
REMARK   82  A    between atoms: _210  and  _211
REMARK   83  A    between atoms: _216  and  _218
REMARK   84  A    between atoms: _218  and  _219
REMARK   85  A    between atoms: _218  and  _221
REMARK   86  A    between atoms: _221  and  _222
REMARK   87  A    between atoms: _227  and  _228
REMARK   88  A    between atoms: _230  and  _232
REMARK   89  A    between atoms: _232  and  _233
REMARK   90  A    between atoms: _232  and  _235
REMARK   91  A    between atoms: _235  and  _236
REMARK   92  A    between atoms: _239  and  _241
REMARK   93  A    between atoms: _241  and  _242
REMARK   94  A    between atoms: _241  and  _244
REMARK   95  A    between atoms: _244  and  _245
REMARK   96  A    between atoms: _250  and  _252
REMARK   97  A    between atoms: _252  and  _253
REMARK   98  A    between atoms: _252  and  _255
REMARK   99  A    between atoms: _255  and  _256
REMARK  100  A    between atoms: _261  and  _263
REMARK  101  A    between atoms: _263  and  _264
REMARK  102  A    between atoms: _263  and  _266
REMARK  103  A    between atoms: _266  and  _267
REMARK  104  A    between atoms: _270  and  _272
REMARK  105  A    between atoms: _272  and  _273
REMARK  106  A    between atoms: _272  and  _275
REMARK  107  A    between atoms: _278  and  _280
REMARK  108  A    between atoms: _280  and  _281
REMARK  109  A    between atoms: _280  and  _283
REMARK  110  A    between atoms: _283  and  _284
REMARK  111  A    between atoms: _287  and  _289
REMARK  112  A    between atoms: _289  and  _290
REMARK  113  A    between atoms: _289  and  _292
REMARK  114  A    between atoms: _292  and  _293
REMARK  115  A    between atoms: _293  and  _294
REMARK  116  A    between atoms: _297  and  _299
REMARK  117  A    between atoms: _299  and  _300
REMARK  118  A    between atoms: _303  and  _305
REMARK  119  A    between atoms: _305  and  _306
REMARK  120  A    between atoms: _305  and  _308
REMARK  121  A    between atoms: _308  and  _309
REMARK  122  A    between atoms: _312  and  _314
REMARK  123  A    between atoms: _314  and  _315
REMARK  124  A    between atoms: _314  and  _317
REMARK  125  A    between atoms: _317  and  _318
REMARK  126  A    between atoms: _318  and  _319
REMARK  127  A    between atoms: _322  and  _324
REMARK  128  A    between atoms: _324  and  _325
REMARK  129  A    between atoms: _324  and  _327
REMARK  130  A    between atoms: _327  and  _328
REMARK  131  A    between atoms: _333  and  _335
REMARK  132  A    between atoms: _335  and  _336
REMARK  133  A    between atoms: _338  and  _340
REMARK  134  A    between atoms: _340  and  _341
REMARK  135  A    between atoms: _340  and  _343
REMARK  136  A    between atoms: _346  and  _348
REMARK  137  A    between atoms: _348  and  _349
REMARK  138  A    between atoms: _352  and  _354
REMARK  139  A    between atoms: _354  and  _355
REMARK  140  A    between atoms: _354  and  _357
REMARK  141  A    between atoms: _357  and  _358
REMARK  142  A    between atoms: _363  and  _365
REMARK  143  A    between atoms: _365  and  _366
REMARK  144  A    between atoms: _365  and  _368
REMARK  145  A    between atoms: _368  and  _369
REMARK  146  A    between atoms: _369  and  _370
REMARK  147  A    between atoms: _370  and  _371
REMARK  148  A    between atoms: _371  and  _372
REMARK  149  A    between atoms: _376  and  _378
REMARK  150  A    between atoms: _378  and  _379
REMARK  151  A    between atoms: _378  and  _381
REMARK  152  A    between atoms: _381  and  _382
REMARK  153  A    between atoms: _385  and  _387
REMARK  154  A    between atoms: _387  and  _388
REMARK  155  A    between atoms: _387  and  _390
REMARK  156  A    between atoms: _390  and  _391
REMARK  157  A    between atoms: _396  and  _398
REMARK  158  A    between atoms: _398  and  _399
REMARK  159  A    between atoms: _401  and  _403
REMARK  160  A    between atoms: _403  and  _404
REMARK  161  A    between atoms: _403  and  _406
REMARK  162  A    between atoms: _406  and  _407
REMARK  163  A    between atoms: _407  and  _408
REMARK  164  A    between atoms: _408  and  _409
REMARK  165  A    between atoms: _409  and  _410
REMARK  166  A    between atoms: _414  and  _416
REMARK  167  A    between atoms: _416  and  _417
REMARK  168  A    between atoms: _416  and  _419
REMARK  169  A    between atoms: _419  and  _420
REMARK  170  A    between atoms: _420  and  _421
REMARK  171  A    between atoms: _421  and  _422
REMARK  172  A    between atoms: _431  and  _433
REMARK  173  A    between atoms: _433  and  _434
REMARK  174  A    between atoms: _433  and  _436
REMARK  175  A    between atoms: _436  and  _437
REMARK  176  A    between atoms: _442  and  _444
REMARK  177  A    between atoms: _444  and  _445
REMARK  178  A    between atoms: _444  and  _447
REMARK  179  A    between atoms: _447  and  _448
REMARK  180  A    between atoms: _453  and  _454
REMARK  181  A    between atoms: _456  and  _458
REMARK  182  A    between atoms: _458  and  _459
REMARK  183  A    between atoms: _458  and  _461
REMARK  184  A    between atoms: _461  and  _462
REMARK  185  A    between atoms: _462  and  _463
REMARK  186  A    between atoms: _463  and  _464
REMARK  187  A    between atoms: _464  and  _465
REMARK  188  A    between atoms: _469  and  _471
REMARK  189  A    between atoms: _471  and  _472
REMARK  190  A    between atoms: _471  and  _474
REMARK  191  A    between atoms: _474  and  _475
REMARK  192  A    between atoms: _477  and  _479
REMARK  193  A    between atoms: _479  and  _480
REMARK  194  A    between atoms: _479  and  _482
REMARK  195  A    between atoms: _482  and  _483
REMARK  196  A    between atoms: _486  and  _488
REMARK  197  A    between atoms: _488  and  _489
REMARK  198  A    between atoms: _488  and  _491
REMARK  199  A    between atoms: _491  and  _492
REMARK  200  A    between atoms: _492  and  _493
REMARK  201  A    between atoms: _496  and  _498
REMARK  202  A    between atoms: _498  and  _499
REMARK  203  A    between atoms: _502  and  _504
REMARK  204  A    between atoms: _504  and  _505
REMARK  205  A    between atoms: _504  and  _507
REMARK  206  A    between atoms: _507  and  _508
REMARK  207  A    between atoms: _510  and  _512
REMARK  208  A    between atoms: _512  and  _513
REMARK  209  A    between atoms: _515  and  _517
REMARK  210  A    between atoms: _517  and  _518
REMARK  211  A    between atoms: _517  and  _520
REMARK  212  A    between atoms: _520  and  _521
REMARK  213  A    between atoms: _524  and  _526
REMARK  214  A    between atoms: _526  and  _527
REMARK  215  A    between atoms: _529  and  _531
REMARK  216  A    between atoms: _531  and  _532
REMARK  217  A    between atoms: _531  and  _534
REMARK  218  A    between atoms: _534  and  _535
REMARK  219  A    between atoms: _540  and  _542
REMARK  220  A    between atoms: _542  and  _543
REMARK  221  A    between atoms: _542  and  _545
REMARK  222  A    between atoms: _545  and  _546
REMARK  223  A    between atoms: _546  and  _547
REMARK  224  A    between atoms: _554  and  _555
REMARK  225  A    between atoms: _555  and  _571
REMARK  226  A    between atoms: _556  and  _558
REMARK  227  A    between atoms: _558  and  _559
REMARK  228  A    between atoms: _559  and  _560
REMARK  229  A    between atoms: _564  and  _566
REMARK  230  A    between atoms: _566  and  _567
REMARK  231  A    between atoms: _566  and  _574
REMARK  232  A    between atoms: _567  and  _568
REMARK  233  A    between atoms: _568  and  _569
REMARK  234  A    between atoms: _569  and  _570
REMARK  235  A    between atoms: _570  and  _571
REMARK  236  A    between atoms: _576  and  _578
REMARK  237  A    between atoms: _578  and  _579
REMARK  238  A    between atoms: _578  and  _581
REMARK  239  A    between atoms: _581  and  _582
REMARK  240  A    between atoms: _585  and  _587
REMARK  241  A    between atoms: _587  and  _588
REMARK  242  A    between atoms: _590  and  _592
REMARK  243  A    between atoms: _592  and  _593
REMARK  244  A    between atoms: _596  and  _598
REMARK  245  A    between atoms: _598  and  _599
REMARK  246  A    between atoms: _598  and  _601
REMARK  247  A    between atoms: _601  and  _602
REMARK  248  A    between atoms: _607  and  _608
REMARK                            x       y       z     vdW  Elec       q    Type
REMARK                         _______ _______ _______ _____ _____    ______ ____
ROOT
ATOM      1  C   LYS A   1      26.063  30.374  27.307  0.00  0.00    +0.238 C 
ATOM      2  N   ARG A   2      27.144  30.062  28.043  0.00  0.00    -0.298 N 
ATOM      3  H   ARG A   2      27.445  29.070  28.128  0.00  0.00    +0.150 HD
ATOM      4  O   LYS A   1      25.620  31.546  27.197  0.00  0.00    -0.274 OA
ENDROOT
BRANCH   1   5
ATOM      5  CA  LYS A   1      25.384  29.222  26.544  0.00  0.00    +0.145 C 
BRANCH   5   6
ATOM      6  N   LYS A   1      24.046  29.748  26.172  0.00  0.00    -0.238 NA
ATOM      7  H   LYS A   1      23.756  30.658  26.583  0.00  0.00    +0.142 HD
ENDBRANCH   5   6
BRANCH   5   8
ATOM      8  CB  LYS A   1      26.229  28.831  25.326  0.00  0.00    +0.026 C 
BRANCH   8   9
ATOM      9  CG  LYS A   1      26.386  29.931  24.279  0.00  0.00    -0.000 C 
BRANCH   9  10
ATOM     10  CD  LYS A   1      27.004  29.437  22.913  0.00  0.00    -0.024 C 
BRANCH  10  11
ATOM     11  CE  LYS A   1      26.011  28.518  22.086  0.00  0.00    -0.086 C 
BRANCH  11  12
ATOM     12  NZ  LYS A   1      26.588  27.168  21.970  0.00  0.00    +0.380 N 
ATOM     13  HZ1 LYS A   1      26.726  26.769  22.920  0.00  0.00    -0.089 HD
ATOM     14  HZ2 LYS A   1      27.504  27.225  21.480  0.00  0.00    -0.089 HD
ATOM     15  HZ3 LYS A   1      25.940  26.561  21.428  0.00  0.00    -0.089 HD
ENDBRANCH  11  12
ENDBRANCH  10  11
ENDBRANCH   9  10
ENDBRANCH   8   9
ENDBRANCH   5   8
ENDBRANCH   1   5
BRANCH   2  16
ATOM     16  CA  ARG A   2      27.895  31.111  28.722  0.00  0.00    +0.137 C 
BRANCH  16  17
ATOM     17  C   ARG A   2      28.349  32.189  27.663  0.00  0.00    +0.227 C 
ATOM     18  O   ARG A   2      28.627  31.834  26.472  0.00  0.00    -0.286 OA
ENDBRANCH  16  17
BRANCH  16  19
ATOM     19  CB  ARG A   2      29.140  30.495  29.425  0.00  0.00    +0.031 C 
BRANCH  19  20
ATOM     20  CG  ARG A   2      28.799  29.657  30.634  0.00  0.00    +0.045 C 
BRANCH  20  21
ATOM     21  CD  ARG A   2      28.113  30.468  31.750  0.00  0.00    +0.174 C 
BRANCH  21  22
ATOM     22  NE  ARG A   2      29.094  31.432  32.262  0.00  0.00    -0.265 N 
ATOM     23  CZ  ARG A   2      29.813  31.296  33.389  0.00  0.00    +0.342 C 
ATOM     24  NH2 ARG A   2      29.650  30.270  34.205  0.00  0.00    -0.292 N 
ATOM     25 HH21 ARG A   2      30.224  30.197  35.069  0.00  0.00    +0.255 HD
ATOM     26 HH22 ARG A   2      28.948  29.536  33.983  0.00  0.00    +0.255 HD
ATOM     27  NH1 ARG A   2      30.699  32.219  33.708  0.00  0.00    -0.292 N 
ATOM     28 HH11 ARG A   2      31.260  32.122  34.578  0.00  0.00    +0.255 HD
ATOM     29 HH12 ARG A   2      30.837  33.044  33.089  0.00  0.00    +0.255 HD
ATOM     30  HE  ARG A   2      29.246  32.296  31.704  0.00  0.00    +0.259 HD
ENDBRANCH  21  22
ENDBRANCH  20  21
ENDBRANCH  19  20
ENDBRANCH  16  19
ENDBRANCH   2  16
TORSDOF 13
REMARK  Name = ../refined-set-2016/4el5/4el5_pocket.pdb
REMARK  248 active torsions:
REMARK  status: ('A' for Active; 'I' for Inactive)
REMARK    1  A    between atoms: _1  and  _3
REMARK    2  A    between atoms: _3  and  _4
REMARK    3  A    between atoms: _3  and  _6
REMARK    4  A    between atoms: _6  and  _7
REMARK    5  A    between atoms: _12  and  _13
REMARK    6  A    between atoms: _15  and  _17
REMARK    7  A    between atoms: _17  and  _18
REMARK    8  A    between atoms: _17  and  _20
REMARK    9  A    between atoms: _20  and  _21
REMARK   10  A    between atoms: _21  and  _22
REMARK   11  A    between atoms: _25  and  _27
REMARK   12  A    between atoms: _27  and  _28
REMARK   13  A    between atoms: _27  and  _30
REMARK   14  A    between atoms: _30  and  _31
REMARK   15  A    between atoms: _36  and  _38
REMARK   16  A    between atoms: _38  and  _39
REMARK   17  A    between atoms: _41  and  _43
REMARK   18  A    between atoms: _43  and  _44
REMARK   19  A    between atoms: _46  and  _48
REMARK   20  A    between atoms: _48  and  _49
REMARK   21  A    between atoms: _48  and  _51
REMARK   22  A    between atoms: _51  and  _52
REMARK   23  A    between atoms: _55  and  _57
REMARK   24  A    between atoms: _57  and  _58
REMARK   25  A    between atoms: _60  and  _62
REMARK   26  A    between atoms: _62  and  _63
REMARK   27  A    between atoms: _62  and  _65
REMARK   28  A    between atoms: _65  and  _66
REMARK   29  A    between atoms: _66  and  _67
REMARK   30  A    between atoms: _67  and  _68
REMARK   31  A    between atoms: _77  and  _79
REMARK   32  A    between atoms: _79  and  _80
REMARK   33  A    between atoms: _79  and  _82
REMARK   34  A    between atoms: _82  and  _83
REMARK   35  A    between atoms: _86  and  _88
REMARK   36  A    between atoms: _88  and  _89
REMARK   37  A    between atoms: _92  and  _94
REMARK   38  A    between atoms: _94  and  _95
REMARK   39  A    between atoms: _94  and  _97
REMARK   40  A    between atoms: _97  and  _98
REMARK   41  A    between atoms: _104  and  _106
REMARK   42  A    between atoms: _106  and  _107
REMARK   43  A    between atoms: _106  and  _109
REMARK   44  A    between atoms: _109  and  _110
REMARK   45  A    between atoms: _115  and  _117
REMARK   46  A    between atoms: _117  and  _118
REMARK   47  A    between atoms: _117  and  _120
REMARK   48  A    between atoms: _120  and  _121
REMARK   49  A    between atoms: _124  and  _126
REMARK   50  A    between atoms: _126  and  _127
REMARK   51  A    between atoms: _126  and  _129
REMARK   52  A    between atoms: _129  and  _130
REMARK   53  A    between atoms: _135  and  _137
REMARK   54  A    between atoms: _137  and  _138
REMARK   55  A    between atoms: _137  and  _140
REMARK   56  A    between atoms: _140  and  _141
REMARK   57  A    between atoms: _147  and  _149
REMARK   58  A    between atoms: _149  and  _150
REMARK   59  A    between atoms: _149  and  _152
REMARK   60  A    between atoms: _152  and  _153
REMARK   61  A    between atoms: _159  and  _161
REMARK   62  A    between atoms: _161  and  _162
REMARK   63  A    between atoms: _161  and  _164
REMARK   64  A    between atoms: _164  and  _165
REMARK   65  A    between atoms: _165  and  _166
REMARK   66  A    between atoms: _166  and  _167
REMARK   67  A    between atoms: _176  and  _178
REMARK   68  A    between atoms: _178  and  _179
REMARK   69  A    between atoms: _178  and  _181
REMARK   70  A    between atoms: _181  and  _182
REMARK   71  A    between atoms: _187  and  _189
REMARK   72  A    between atoms: _189  and  _190
REMARK   73  A    between atoms: _189  and  _192
REMARK   74  A    between atoms: _192  and  _193
REMARK   75  A    between atoms: _196  and  _198
REMARK   76  A    between atoms: _198  and  _199
REMARK   77  A    between atoms: _198  and  _201
REMARK   78  A    between atoms: _201  and  _202
REMARK   79  A    between atoms: _205  and  _207
REMARK   80  A    between atoms: _207  and  _208
REMARK   81  A    between atoms: _207  and  _210
REMARK   82  A    between atoms: _210  and  _211
REMARK   83  A    between atoms: _216  and  _218
REMARK   84  A    between atoms: _218  and  _219
REMARK   85  A    between atoms: _218  and  _221
REMARK   86  A    between atoms: _221  and  _222
REMARK   87  A    between atoms: _227  and  _228
REMARK   88  A    between atoms: _230  and  _232
REMARK   89  A    between atoms: _232  and  _233
REMARK   90  A    between atoms: _232  and  _235
REMARK   91  A    between atoms: _235  and  _236
REMARK   92  A    between atoms: _239  and  _241
REMARK   93  A    between atoms: _241  and  _242
REMARK   94  A    between atoms: _241  and  _244
REMARK   95  A    between atoms: _244  and  _245
REMARK   96  A    between atoms: _250  and  _252
REMARK   97  A    between atoms: _252  and  _253
REMARK   98  A    between atoms: _252  and  _255
REMARK   99  A    between atoms: _255  and  _256
REMARK  100  A    between atoms: _261  and  _263
REMARK  101  A    between atoms: _263  and  _264
REMARK  102  A    between atoms: _263  and  _266
REMARK  103  A    between atoms: _266  and  _267
REMARK  104  A    between atoms: _270  and  _272
REMARK  105  A    between atoms: _272  and  _273
REMARK  106  A    between atoms: _272  and  _275
REMARK  107  A    between atoms: _278  and  _280
REMARK  108  A    between atoms: _280  and  _281
REMARK  109  A    between atoms: _280  and  _283
REMARK  110  A    between atoms: _283  and  _284
REMARK  111  A    between atoms: _287  and  _289
REMARK  112  A    between atoms: _289  and  _290
REMARK  113  A    between atoms: _289  and  _292
REMARK  114  A    between atoms: _292  and  _293
REMARK  115  A    between atoms: _293  and  _294
REMARK  116  A    between atoms: _297  and  _299
REMARK  117  A    between atoms: _299  and  _300
REMARK  118  A    between atoms: _303  and  _305
REMARK  119  A    between atoms: _305  and  _306
REMARK  120  A    between atoms: _305  and  _308
REMARK  121  A    between atoms: _308  and  _309
REMARK  122  A    between atoms: _312  and  _314
REMARK  123  A    between atoms: _314  and  _315
REMARK  124  A    between atoms: _314  and  _317
REMARK  125  A    between atoms: _317  and  _318
REMARK  126  A    between atoms: _318  and  _319
REMARK  127  A    between atoms: _322  and  _324
REMARK  128  A    between atoms: _324  and  _325
REMARK  129  A    between atoms: _324  and  _327
REMARK  130  A    between atoms: _327  and  _328
REMARK  131  A    between atoms: _333  and  _335
REMARK  132  A    between atoms: _335  and  _336
REMARK  133  A    between atoms: _338  and  _340
REMARK  134  A    between atoms: _340  and  _341
REMARK  135  A    between atoms: _340  and  _343
REMARK  136  A    between atoms: _346  and  _348
REMARK  137  A    between atoms: _348  and  _349
REMARK  138  A    between atoms: _352  and  _354
REMARK  139  A    between atoms: _354  and  _355
REMARK  140  A    between atoms: _354  and  _357
REMARK  141  A    between atoms: _357  and  _358
REMARK  142  A    between atoms: _363  and  _365
REMARK  143  A    between atoms: _365  and  _366
REMARK  144  A    between atoms: _365  and  _368
REMARK  145  A    between atoms: _368  and  _369
REMARK  146  A    between atoms: _369  and  _370
REMARK  147  A    between atoms: _370  and  _371
REMARK  148  A    between atoms: _371  and  _372
REMARK  149  A    between atoms: _376  and  _378
REMARK  150  A    between atoms: _378  and  _379
REMARK  151  A    between atoms: _378  and  _381
REMARK  152  A    between atoms: _381  and  _382
REMARK  153  A    between atoms: _385  and  _387
REMARK  154  A    between atoms: _387  and  _388
REMARK  155  A    between atoms: _387  and  _390
REMARK  156  A    between atoms: _390  and  _391
REMARK  157  A    between atoms: _396  and  _398
REMARK  158  A    between atoms: _398  and  _399
REMARK  159  A    between atoms: _401  and  _403
REMARK  160  A    between atoms: _403  and  _404
REMARK  161  A    between atoms: _403  and  _406
REMARK  162  A    between atoms: _406  and  _407
REMARK  163  A    between atoms: _407  and  _408
REMARK  164  A    between atoms: _408  and  _409
REMARK  165  A    between atoms: _409  and  _410
REMARK  166  A    between atoms: _414  and  _416
REMARK  167  A    between atoms: _416  and  _417
REMARK  168  A    between atoms: _416  and  _419
REMARK  169  A    between atoms: _419  and  _420
REMARK  170  A    between atoms: _420  and  _421
REMARK  171  A    between atoms: _421  and  _422
REMARK  172  A    between atoms: _431  and  _433
REMARK  173  A    between atoms: _433  and  _434
REMARK  174  A    between atoms: _433  and  _436
REMARK  175  A    between atoms: _436  and  _437
REMARK  176  A    between atoms: _442  and  _444
REMARK  177  A    between atoms: _444  and  _445
REMARK  178  A    between atoms: _444  and  _447
REMARK  179  A    between atoms: _447  and  _448
REMARK  180  A    between atoms: _453  and  _454
REMARK  181  A    between atoms: _456  and  _458
REMARK  182  A    between atoms: _458  and  _459
REMARK  183  A    between atoms: _458  and  _461
REMARK  184  A    between atoms: _461  and  _462
REMARK  185  A    between atoms: _462  and  _463
REMARK  186  A    between atoms: _463  and  _464
REMARK  187  A    between atoms: _464  and  _465
REMARK  188  A    between atoms: _469  and  _471
REMARK  189  A    between atoms: _471  and  _472
REMARK  190  A    between atoms: _471  and  _474
REMARK  191  A    between atoms: _474  and  _475
REMARK  192  A    between atoms: _477  and  _479
REMARK  193  A    between atoms: _479  and  _480
REMARK  194  A    between atoms: _479  and  _482
REMARK  195  A    between atoms: _482  and  _483
REMARK  196  A    between atoms: _486  and  _488
REMARK  197  A    between atoms: _488  and  _489
REMARK  198  A    between atoms: _488  and  _491
REMARK  199  A    between atoms: _491  and  _492
REMARK  200  A    between atoms: _492  and  _493
REMARK  201  A    between atoms: _496  and  _498
REMARK  202  A    between atoms: _498  and  _499
REMARK  203  A    between atoms: _502  and  _504
REMARK  204  A    between atoms: _504  and  _505
REMARK  205  A    between atoms: _504  and  _507
REMARK  206  A    between atoms: _507  and  _508
REMARK  207  A    between atoms: _510  and  _512
REMARK  208  A    between atoms: _512  and  _513
REMARK  209  A    between atoms: _515  and  _517
REMARK  210  A    between atoms: _517  and  _518
REMARK  211  A    between atoms: _517  and  _520
REMARK  212  A    between atoms: _520  and  _521
REMARK  213  A    between atoms: _524  and  _526
REMARK  214  A    between atoms: _526  and  _527
REMARK  215  A    between atoms: _529  and  _531
REMARK  216  A    between atoms: _531  and  _532
REMARK  217  A    between atoms: _531  and  _534
REMARK  218  A    between atoms: _534  and  _535
REMARK  219  A    between atoms: _540  and  _542
REMARK  220  A    between atoms: _542  and  _543
REMARK  221  A    between atoms: _542  and  _545
REMARK  222  A    between atoms: _545  and  _546
REMARK  223  A    between atoms: _546  and  _547
REMARK  224  A    between atoms: _554  and  _555
REMARK  225  A    between atoms: _555  and  _571
REMARK  226  A    between atoms: _556  and  _558
REMARK  227  A    between atoms: _558  and  _559
REMARK  228  A    between atoms: _559  and  _560
REMARK  229  A    between atoms: _564  and  _566
REMARK  230  A    between atoms: _566  and  _567
REMARK  231  A    between atoms: _566  and  _574
REMARK  232  A    between atoms: _567  and  _568
REMARK  233  A    between atoms: _568  and  _569
REMARK  234  A    between atoms: _569  and  _570
REMARK  235  A    between atoms: _570  and  _571
REMARK  236  A    between atoms: _576  and  _578
REMARK  237  A    between atoms: _578  and  _579
REMARK  238  A    between atoms: _578  and  _581
REMARK  239  A    between atoms: _581  and  _582
REMARK  240  A    between atoms: _585  and  _587
REMARK  241  A    between atoms: _587  and  _588
REMARK  242  A    between atoms: _590  and  _592
REMARK  243  A    between atoms: _592  and  _593
REMARK  244  A    between atoms: _596  and  _598
REMARK  245  A    between atoms: _598  and  _599
REMARK  246  A    between atoms: _598  and  _601
REMARK  247  A    between atoms: _601  and  _602
REMARK  248  A    between atoms: _607  and  _608
REMARK                            x       y       z     vdW  Elec       q    Type
REMARK                         _______ _______ _______ _____ _____    ______ ____
ROOT
ATOM      1  CB  HIS A   1      32.935  32.838  26.022  0.00  0.00    +0.072 C 
ENDROOT
BRANCH   1   2
ATOM      2  CG  HIS A   1      34.388  32.752  26.268  0.00  0.00    +0.082 A 
ATOM      3  CD2 HIS A   1      35.081  32.360  27.365  0.00  0.00    +0.115 A 
ATOM      4  NE2 HIS A   1      36.423  32.523  27.070  0.00  0.00    -0.221 NA
ATOM      5  CE1 HIS A   1      36.543  33.017  25.839  0.00  0.00    +0.199 A 
ATOM      6  ND1 HIS A   1      35.330  33.185  25.335  0.00  0.00    -0.227 NA
ENDBRANCH   1   2
BRANCH   1   7
ATOM      7  CA  HIS A   1      32.444  34.246  25.852  0.00  0.00    +0.139 C 
BRANCH   7   8
ATOM      8  N   HIS A   1      31.017  34.319  26.020  0.00  0.00    -0.239 NA
ATOM      9  H   HIS A   1      30.392  34.270  25.190  0.00  0.00    +0.142 HD
ENDBRANCH   7   8
BRANCH   7  10
ATOM     10  C   HIS A   1      32.732  34.736  24.420  0.00  0.00    +0.224 C 
ATOM     11  O   HIS A   1      31.928  34.529  23.529  0.00  0.00    -0.287 OA
ENDBRANCH   7  10
ENDBRANCH   1   7
TORSDOF 4
REMARK  Name = ../refined-set-2016/4el5/4el5_pocket.pdb
REMARK  248 active torsions:
REMARK  status: ('A' for Active; 'I' for Inactive)
REMARK    1  A    between atoms: _1  and  _3
REMARK    2  A    between atoms: _3  and  _4
REMARK    3  A    between atoms: _3  and  _6
REMARK    4  A    between atoms: _6  and  _7
REMARK    5  A    between atoms: _12  and  _13
REMARK    6  A    between atoms: _15  and  _17
REMARK    7  A    between atoms: _17  and  _18
REMARK    8  A    between atoms: _17  and  _20
REMARK    9  A    between atoms: _20  and  _21
REMARK   10  A    between atoms: _21  and  _22
REMARK   11  A    between atoms: _25  and  _27
REMARK   12  A    between atoms: _27  and  _28
REMARK   13  A    between atoms: _27  and  _30
REMARK   14  A    between atoms: _30  and  _31
REMARK   15  A    between atoms: _36  and  _38
REMARK   16  A    between atoms: _38  and  _39
REMARK   17  A    between atoms: _41  and  _43
REMARK   18  A    between atoms: _43  and  _44
REMARK   19  A    between atoms: _46  and  _48
REMARK   20  A    between atoms: _48  and  _49
REMARK   21  A    between atoms: _48  and  _51
REMARK   22  A    between atoms: _51  and  _52
REMARK   23  A    between atoms: _55  and  _57
REMARK   24  A    between atoms: _57  and  _58
REMARK   25  A    between atoms: _60  and  _62
REMARK   26  A    between atoms: _62  and  _63
REMARK   27  A    between atoms: _62  and  _65
REMARK   28  A    between atoms: _65  and  _66
REMARK   29  A    between atoms: _66  and  _67
REMARK   30  A    between atoms: _67  and  _68
REMARK   31  A    between atoms: _77  and  _79
REMARK   32  A    between atoms: _79  and  _80
REMARK   33  A    between atoms: _79  and  _82
REMARK   34  A    between atoms: _82  and  _83
REMARK   35  A    between atoms: _86  and  _88
REMARK   36  A    between atoms: _88  and  _89
REMARK   37  A    between atoms: _92  and  _94
REMARK   38  A    between atoms: _94  and  _95
REMARK   39  A    between atoms: _94  and  _97
REMARK   40  A    between atoms: _97  and  _98
REMARK   41  A    between atoms: _104  and  _106
REMARK   42  A    between atoms: _106  and  _107
REMARK   43  A    between atoms: _106  and  _109
REMARK   44  A    between atoms: _109  and  _110
REMARK   45  A    between atoms: _115  and  _117
REMARK   46  A    between atoms: _117  and  _118
REMARK   47  A    between atoms: _117  and  _120
REMARK   48  A    between atoms: _120  and  _121
REMARK   49  A    between atoms: _124  and  _126
REMARK   50  A    between atoms: _126  and  _127
REMARK   51  A    between atoms: _126  and  _129
REMARK   52  A    between atoms: _129  and  _130
REMARK   53  A    between atoms: _135  and  _137
REMARK   54  A    between atoms: _137  and  _138
REMARK   55  A    between atoms: _137  and  _140
REMARK   56  A    between atoms: _140  and  _141
REMARK   57  A    between atoms: _147  and  _149
REMARK   58  A    between atoms: _149  and  _150
REMARK   59  A    between atoms: _149  and  _152
REMARK   60  A    between atoms: _152  and  _153
REMARK   61  A    between atoms: _159  and  _161
REMARK   62  A    between atoms: _161  and  _162
REMARK   63  A    between atoms: _161  and  _164
REMARK   64  A    between atoms: _164  and  _165
REMARK   65  A    between atoms: _165  and  _166
REMARK   66  A    between atoms: _166  and  _167
REMARK   67  A    between atoms: _176  and  _178
REMARK   68  A    between atoms: _178  and  _179
REMARK   69  A    between atoms: _178  and  _181
REMARK   70  A    between atoms: _181  and  _182
REMARK   71  A    between atoms: _187  and  _189
REMARK   72  A    between atoms: _189  and  _190
REMARK   73  A    between atoms: _189  and  _192
REMARK   74  A    between atoms: _192  and  _193
REMARK   75  A    between atoms: _196  and  _198
REMARK   76  A    between atoms: _198  and  _199
REMARK   77  A    between atoms: _198  and  _201
REMARK   78  A    between atoms: _201  and  _202
REMARK   79  A    between atoms: _205  and  _207
REMARK   80  A    between atoms: _207  and  _208
REMARK   81  A    between atoms: _207  and  _210
REMARK   82  A    between atoms: _210  and  _211
REMARK   83  A    between atoms: _216  and  _218
REMARK   84  A    between atoms: _218  and  _219
REMARK   85  A    between atoms: _218  and  _221
REMARK   86  A    between atoms: _221  and  _222
REMARK   87  A    between atoms: _227  and  _228
REMARK   88  A    between atoms: _230  and  _232
REMARK   89  A    between atoms: _232  and  _233
REMARK   90  A    between atoms: _232  and  _235
REMARK   91  A    between atoms: _235  and  _236
REMARK   92  A    between atoms: _239  and  _241
REMARK   93  A    between atoms: _241  and  _242
REMARK   94  A    between atoms: _241  and  _244
REMARK   95  A    between atoms: _244  and  _245
REMARK   96  A    between atoms: _250  and  _252
REMARK   97  A    between atoms: _252  and  _253
REMARK   98  A    between atoms: _252  and  _255
REMARK   99  A    between atoms: _255  and  _256
REMARK  100  A    between atoms: _261  and  _263
REMARK  101  A    between atoms: _263  and  _264
REMARK  102  A    between atoms: _263  and  _266
REMARK  103  A    between atoms: _266  and  _267
REMARK  104  A    between atoms: _270  and  _272
REMARK  105  A    between atoms: _272  and  _273
REMARK  106  A    between atoms: _272  and  _275
REMARK  107  A    between atoms: _278  and  _280
REMARK  108  A    between atoms: _280  and  _281
REMARK  109  A    between atoms: _280  and  _283
REMARK  110  A    between atoms: _283  and  _284
REMARK  111  A    between atoms: _287  and  _289
REMARK  112  A    between atoms: _289  and  _290
REMARK  113  A    between atoms: _289  and  _292
REMARK  114  A    between atoms: _292  and  _293
REMARK  115  A    between atoms: _293  and  _294
REMARK  116  A    between atoms: _297  and  _299
REMARK  117  A    between atoms: _299  and  _300
REMARK  118  A    between atoms: _303  and  _305
REMARK  119  A    between atoms: _305  and  _306
REMARK  120  A    between atoms: _305  and  _308
REMARK  121  A    between atoms: _308  and  _309
REMARK  122  A    between atoms: _312  and  _314
REMARK  123  A    between atoms: _314  and  _315
REMARK  124  A    between atoms: _314  and  _317
REMARK  125  A    between atoms: _317  and  _318
REMARK  126  A    between atoms: _318  and  _319
REMARK  127  A    between atoms: _322  and  _324
REMARK  128  A    between atoms: _324  and  _325
REMARK  129  A    between atoms: _324  and  _327
REMARK  130  A    between atoms: _327  and  _328
REMARK  131  A    between atoms: _333  and  _335
REMARK  132  A    between atoms: _335  and  _336
REMARK  133  A    between atoms: _338  and  _340
REMARK  134  A    between atoms: _340  and  _341
REMARK  135  A    between atoms: _340  and  _343
REMARK  136  A    between atoms: _346  and  _348
REMARK  137  A    between atoms: _348  and  _349
REMARK  138  A    between atoms: _352  and  _354
REMARK  139  A    between atoms: _354  and  _355
REMARK  140  A    between atoms: _354  and  _357
REMARK  141  A    between atoms: _357  and  _358
REMARK  142  A    between atoms: _363  and  _365
REMARK  143  A    between atoms: _365  and  _366
REMARK  144  A    between atoms: _365  and  _368
REMARK  145  A    between atoms: _368  and  _369
REMARK  146  A    between atoms: _369  and  _370
REMARK  147  A    between atoms: _370  and  _371
REMARK  148  A    between atoms: _371  and  _372
REMARK  149  A    between atoms: _376  and  _378
REMARK  150  A    between atoms: _378  and  _379
REMARK  151  A    between atoms: _378  and  _381
REMARK  152  A    between atoms: _381  and  _382
REMARK  153  A    between atoms: _385  and  _387
REMARK  154  A    between atoms: _387  and  _388
REMARK  155  A    between atoms: _387  and  _390
REMARK  156  A    between atoms: _390  and  _391
REMARK  157  A    between atoms: _396  and  _398
REMARK  158  A    between atoms: _398  and  _399
REMARK  159  A    between atoms: _401  and  _403
REMARK  160  A    between atoms: _403  and  _404
REMARK  161  A    between atoms: _403  and  _406
REMARK  162  A    between atoms: _406  and  _407
REMARK  163  A    between atoms: _407  and  _408
REMARK  164  A    between atoms: _408  and  _409
REMARK  165  A    between atoms: _409  and  _410
REMARK  166  A    between atoms: _414  and  _416
REMARK  167  A    between atoms: _416  and  _417
REMARK  168  A    between atoms: _416  and  _419
REMARK  169  A    between atoms: _419  and  _420
REMARK  170  A    between atoms: _420  and  _421
REMARK  171  A    between atoms: _421  and  _422
REMARK  172  A    between atoms: _431  and  _433
REMARK  173  A    between atoms: _433  and  _434
REMARK  174  A    between atoms: _433  and  _436
REMARK  175  A    between atoms: _436  and  _437
REMARK  176  A    between atoms: _442  and  _444
REMARK  177  A    between atoms: _444  and  _445
REMARK  178  A    between atoms: _444  and  _447
REMARK  179  A    between atoms: _447  and  _448
REMARK  180  A    between atoms: _453  and  _454
REMARK  181  A    between atoms: _456  and  _458
REMARK  182  A    between atoms: _458  and  _459
REMARK  183  A    between atoms: _458  and  _461
REMARK  184  A    between atoms: _461  and  _462
REMARK  185  A    between atoms: _462  and  _463
REMARK  186  A    between atoms: _463  and  _464
REMARK  187  A    between atoms: _464  and  _465
REMARK  188  A    between atoms: _469  and  _471
REMARK  189  A    between atoms: _471  and  _472
REMARK  190  A    between atoms: _471  and  _474
REMARK  191  A    between atoms: _474  and  _475
REMARK  192  A    between atoms: _477  and  _479
REMARK  193  A    between atoms: _479  and  _480
REMARK  194  A    between atoms: _479  and  _482
REMARK  195  A    between atoms: _482  and  _483
REMARK  196  A    between atoms: _486  and  _488
REMARK  197  A    between atoms: _488  and  _489
REMARK  198  A    between atoms: _488  and  _491
REMARK  199  A    between atoms: _491  and  _492
REMARK  200  A    between atoms: _492  and  _493
REMARK  201  A    between atoms: _496  and  _498
REMARK  202  A    between atoms: _498  and  _499
REMARK  203  A    between atoms: _502  and  _504
REMARK  204  A    between atoms: _504  and  _505
REMARK  205  A    between atoms: _504  and  _507
REMARK  206  A    between atoms: _507  and  _508
REMARK  207  A    between atoms: _510  and  _512
REMARK  208  A    between atoms: _512  and  _513
REMARK  209  A    between atoms: _515  and  _517
REMARK  210  A    between atoms: _517  and  _518
REMARK  211  A    between atoms: _517  and  _520
REMARK  212  A    between atoms: _520  and  _521
REMARK  213  A    between atoms: _524  and  _526
REMARK  214  A    between atoms: _526  and  _527
REMARK  215  A    between atoms: _529  and  _531
REMARK  216  A    between atoms: _531  and  _532
REMARK  217  A    between atoms: _531  and  _534
REMARK  218  A    between atoms: _534  and  _535
REMARK  219  A    between atoms: _540  and  _542
REMARK  220  A    between atoms: _542  and  _543
REMARK  221  A    between atoms: _542  and  _545
REMARK  222  A    between atoms: _545  and  _546
REMARK  223  A    between atoms: _546  and  _547
REMARK  224  A    between atoms: _554  and  _555
REMARK  225  A    between atoms: _555  and  _571
REMARK  226  A    between atoms: _556  and  _558
REMARK  227  A    between atoms: _558  and  _559
REMARK  228  A    between atoms: _559  and  _560
REMARK  229  A    between atoms: _564  and  _566
REMARK  230  A    between atoms: _566  and  _567
REMARK  231  A    between atoms: _566  and  _574
REMARK  232  A    between atoms: _567  and  _568
REMARK  233  A    between atoms: _568  and  _569
REMARK  234  A    between atoms: _569  and  _570
REMARK  235  A    between atoms: _570  and  _571
REMARK  236  A    between atoms: _576  and  _578
REMARK  237  A    between atoms: _578  and  _579
REMARK  238  A    between atoms: _578  and  _581
REMARK  239  A    between atoms: _581  and  _582
REMARK  240  A    between atoms: _585  and  _587
REMARK  241  A    between atoms: _587  and  _588
REMARK  242  A    between atoms: _590  and  _592
REMARK  243  A    between atoms: _592  and  _593
REMARK  244  A    between atoms: _596  and  _598
REMARK  245  A    between atoms: _598  and  _599
REMARK  246  A    between atoms: _598  and  _601
REMARK  247  A    between atoms: _601  and  _602
REMARK  248  A    between atoms: _607  and  _608
REMARK                            x       y       z     vdW  Elec       q    Type
REMARK                         _______ _______ _______ _____ _____    ______ ____
ROOT
ATOM      1  C   TYR A   1      33.535  32.007  20.696  0.00  0.00    +0.239 C 
ATOM      2  N   LYS A   2      32.482  32.151  21.514  0.00  0.00    -0.298 N 
ATOM      3  H   LYS A   2      32.609  32.612  22.437  0.00  0.00    +0.150 HD
ATOM      4  O   TYR A   1      33.473  31.518  19.548  0.00  0.00    -0.274 OA
ENDROOT
BRANCH   1   5
ATOM      5  CA  TYR A   1      34.861  32.542  21.181  0.00  0.00    +0.149 C 
BRANCH   5   6
ATOM      6  N   TYR A   1      34.751  33.635  22.184  0.00  0.00    -0.238 NA
ATOM      7  H   TYR A   1      35.087  33.501  23.159  0.00  0.00    +0.142 HD
ENDBRANCH   5   6
BRANCH   5   8
ATOM      8  CB  TYR A   1      35.741  31.392  21.632  0.00  0.00    +0.053 C 
BRANCH   8   9
ATOM      9  CG  TYR A   1      35.068  30.307  22.457  0.00  0.00    -0.020 A 
ATOM     10  CD2 TYR A   1      35.149  30.317  23.888  0.00  0.00    -0.001 A 
ATOM     11  CE2 TYR A   1      34.609  29.286  24.622  0.00  0.00    +0.036 A 
ATOM     12  CZ  TYR A   1      34.002  28.228  23.995  0.00  0.00    +0.134 A 
ATOM     13  CE1 TYR A   1      33.906  28.183  22.572  0.00  0.00    +0.036 A 
ATOM     14  CD1 TYR A   1      34.478  29.212  21.838  0.00  0.00    -0.001 A 
BRANCH  12  15
ATOM     15  OH  TYR A   1      33.404  27.215  24.717  0.00  0.00    -0.506 OA
ATOM     16  HH  TYR A   1      33.024  26.547  24.093  0.00  0.00    +0.292 HD
ENDBRANCH  12  15
ENDBRANCH   8   9
ENDBRANCH   5   8
ENDBRANCH   1   5
BRANCH   2  17
ATOM     17  CA  LYS A   2      31.178  31.676  21.132  0.00  0.00    +0.137 C 
BRANCH  17  18
ATOM     18  C   LYS A   2      30.484  32.618  20.127  0.00  0.00    +0.227 C 
ATOM     19  O   LYS A   2      29.499  32.224  19.515  0.00  0.00    -0.286 OA
ENDBRANCH  17  18
BRANCH  17  20
ATOM     20  CB  LYS A   2      30.288  31.452  22.370  0.00  0.00    +0.028 C 
BRANCH  20  21
ATOM     21  CG  LYS A   2      30.745  30.165  23.239  0.00  0.00    -0.000 C 
BRANCH  21  22
ATOM     22  CD  LYS A   2      30.294  30.201  24.750  0.00  0.00    -0.024 C 
BRANCH  22  23
ATOM     23  CE  LYS A   2      30.814  28.955  25.674  0.00  0.00    -0.086 C 
BRANCH  23  24
ATOM     24  NZ  LYS A   2      30.245  27.666  24.883  0.00  0.00    +0.380 N 
ATOM     25  HZ1 LYS A   2      30.520  26.800  25.390  0.00  0.00    -0.089 HD
ATOM     26  HZ2 LYS A   2      29.208  27.723  24.830  0.00  0.00    -0.089 HD
ATOM     27  HZ3 LYS A   2      30.642  27.648  23.922  0.00  0.00    -0.089 HD
ENDBRANCH  23  24
ENDBRANCH  22  23
ENDBRANCH  21  22
ENDBRANCH  20  21
ENDBRANCH  17  20
ENDBRANCH   2  17
TORSDOF 12
REMARK  Name = ../refined-set-2016/4el5/4el5_pocket.pdb
REMARK  248 active torsions:
REMARK  status: ('A' for Active; 'I' for Inactive)
REMARK    1  A    between atoms: _1  and  _3
REMARK    2  A    between atoms: _3  and  _4
REMARK    3  A    between atoms: _3  and  _6
REMARK    4  A    between atoms: _6  and  _7
REMARK    5  A    between atoms: _12  and  _13
REMARK    6  A    between atoms: _15  and  _17
REMARK    7  A    between atoms: _17  and  _18
REMARK    8  A    between atoms: _17  and  _20
REMARK    9  A    between atoms: _20  and  _21
REMARK   10  A    between atoms: _21  and  _22
REMARK   11  A    between atoms: _25  and  _27
REMARK   12  A    between atoms: _27  and  _28
REMARK   13  A    between atoms: _27  and  _30
REMARK   14  A    between atoms: _30  and  _31
REMARK   15  A    between atoms: _36  and  _38
REMARK   16  A    between atoms: _38  and  _39
REMARK   17  A    between atoms: _41  and  _43
REMARK   18  A    between atoms: _43  and  _44
REMARK   19  A    between atoms: _46  and  _48
REMARK   20  A    between atoms: _48  and  _49
REMARK   21  A    between atoms: _48  and  _51
REMARK   22  A    between atoms: _51  and  _52
REMARK   23  A    between atoms: _55  and  _57
REMARK   24  A    between atoms: _57  and  _58
REMARK   25  A    between atoms: _60  and  _62
REMARK   26  A    between atoms: _62  and  _63
REMARK   27  A    between atoms: _62  and  _65
REMARK   28  A    between atoms: _65  and  _66
REMARK   29  A    between atoms: _66  and  _67
REMARK   30  A    between atoms: _67  and  _68
REMARK   31  A    between atoms: _77  and  _79
REMARK   32  A    between atoms: _79  and  _80
REMARK   33  A    between atoms: _79  and  _82
REMARK   34  A    between atoms: _82  and  _83
REMARK   35  A    between atoms: _86  and  _88
REMARK   36  A    between atoms: _88  and  _89
REMARK   37  A    between atoms: _92  and  _94
REMARK   38  A    between atoms: _94  and  _95
REMARK   39  A    between atoms: _94  and  _97
REMARK   40  A    between atoms: _97  and  _98
REMARK   41  A    between atoms: _104  and  _106
REMARK   42  A    between atoms: _106  and  _107
REMARK   43  A    between atoms: _106  and  _109
REMARK   44  A    between atoms: _109  and  _110
REMARK   45  A    between atoms: _115  and  _117
REMARK   46  A    between atoms: _117  and  _118
REMARK   47  A    between atoms: _117  and  _120
REMARK   48  A    between atoms: _120  and  _121
REMARK   49  A    between atoms: _124  and  _126
REMARK   50  A    between atoms: _126  and  _127
REMARK   51  A    between atoms: _126  and  _129
REMARK   52  A    between atoms: _129  and  _130
REMARK   53  A    between atoms: _135  and  _137
REMARK   54  A    between atoms: _137  and  _138
REMARK   55  A    between atoms: _137  and  _140
REMARK   56  A    between atoms: _140  and  _141
REMARK   57  A    between atoms: _147  and  _149
REMARK   58  A    between atoms: _149  and  _150
REMARK   59  A    between atoms: _149  and  _152
REMARK   60  A    between atoms: _152  and  _153
REMARK   61  A    between atoms: _159  and  _161
REMARK   62  A    between atoms: _161  and  _162
REMARK   63  A    between atoms: _161  and  _164
REMARK   64  A    between atoms: _164  and  _165
REMARK   65  A    between atoms: _165  and  _166
REMARK   66  A    between atoms: _166  and  _167
REMARK   67  A    between atoms: _176  and  _178
REMARK   68  A    between atoms: _178  and  _179
REMARK   69  A    between atoms: _178  and  _181
REMARK   70  A    between atoms: _181  and  _182
REMARK   71  A    between atoms: _187  and  _189
REMARK   72  A    between atoms: _189  and  _190
REMARK   73  A    between atoms: _189  and  _192
REMARK   74  A    between atoms: _192  and  _193
REMARK   75  A    between atoms: _196  and  _198
REMARK   76  A    between atoms: _198  and  _199
REMARK   77  A    between atoms: _198  and  _201
REMARK   78  A    between atoms: _201  and  _202
REMARK   79  A    between atoms: _205  and  _207
REMARK   80  A    between atoms: _207  and  _208
REMARK   81  A    between atoms: _207  and  _210
REMARK   82  A    between atoms: _210  and  _211
REMARK   83  A    between atoms: _216  and  _218
REMARK   84  A    between atoms: _218  and  _219
REMARK   85  A    between atoms: _218  and  _221
REMARK   86  A    between atoms: _221  and  _222
REMARK   87  A    between atoms: _227  and  _228
REMARK   88  A    between atoms: _230  and  _232
REMARK   89  A    between atoms: _232  and  _233
REMARK   90  A    between atoms: _232  and  _235
REMARK   91  A    between atoms: _235  and  _236
REMARK   92  A    between atoms: _239  and  _241
REMARK   93  A    between atoms: _241  and  _242
REMARK   94  A    between atoms: _241  and  _244
REMARK   95  A    between atoms: _244  and  _245
REMARK   96  A    between atoms: _250  and  _252
REMARK   97  A    between atoms: _252  and  _253
REMARK   98  A    between atoms: _252  and  _255
REMARK   99  A    between atoms: _255  and  _256
REMARK  100  A    between atoms: _261  and  _263
REMARK  101  A    between atoms: _263  and  _264
REMARK  102  A    between atoms: _263  and  _266
REMARK  103  A    between atoms: _266  and  _267
REMARK  104  A    between atoms: _270  and  _272
REMARK  105  A    between atoms: _272  and  _273
REMARK  106  A    between atoms: _272  and  _275
REMARK  107  A    between atoms: _278  and  _280
REMARK  108  A    between atoms: _280  and  _281
REMARK  109  A    between atoms: _280  and  _283
REMARK  110  A    between atoms: _283  and  _284
REMARK  111  A    between atoms: _287  and  _289
REMARK  112  A    between atoms: _289  and  _290
REMARK  113  A    between atoms: _289  and  _292
REMARK  114  A    between atoms: _292  and  _293
REMARK  115  A    between atoms: _293  and  _294
REMARK  116  A    between atoms: _297  and  _299
REMARK  117  A    between atoms: _299  and  _300
REMARK  118  A    between atoms: _303  and  _305
REMARK  119  A    between atoms: _305  and  _306
REMARK  120  A    between atoms: _305  and  _308
REMARK  121  A    between atoms: _308  and  _309
REMARK  122  A    between atoms: _312  and  _314
REMARK  123  A    between atoms: _314  and  _315
REMARK  124  A    between atoms: _314  and  _317
REMARK  125  A    between atoms: _317  and  _318
REMARK  126  A    between atoms: _318  and  _319
REMARK  127  A    between atoms: _322  and  _324
REMARK  128  A    between atoms: _324  and  _325
REMARK  129  A    between atoms: _324  and  _327
REMARK  130  A    between atoms: _327  and  _328
REMARK  131  A    between atoms: _333  and  _335
REMARK  132  A    between atoms: _335  and  _336
REMARK  133  A    between atoms: _338  and  _340
REMARK  134  A    between atoms: _340  and  _341
REMARK  135  A    between atoms: _340  and  _343
REMARK  136  A    between atoms: _346  and  _348
REMARK  137  A    between atoms: _348  and  _349
REMARK  138  A    between atoms: _352  and  _354
REMARK  139  A    between atoms: _354  and  _355
REMARK  140  A    between atoms: _354  and  _357
REMARK  141  A    between atoms: _357  and  _358
REMARK  142  A    between atoms: _363  and  _365
REMARK  143  A    between atoms: _365  and  _366
REMARK  144  A    between atoms: _365  and  _368
REMARK  145  A    between atoms: _368  and  _369
REMARK  146  A    between atoms: _369  and  _370
REMARK  147  A    between atoms: _370  and  _371
REMARK  148  A    between atoms: _371  and  _372
REMARK  149  A    between atoms: _376  and  _378
REMARK  150  A    between atoms: _378  and  _379
REMARK  151  A    between atoms: _378  and  _381
REMARK  152  A    between atoms: _381  and  _382
REMARK  153  A    between atoms: _385  and  _387
REMARK  154  A    between atoms: _387  and  _388
REMARK  155  A    between atoms: _387  and  _390
REMARK  156  A    between atoms: _390  and  _391
REMARK  157  A    between atoms: _396  and  _398
REMARK  158  A    between atoms: _398  and  _399
REMARK  159  A    between atoms: _401  and  _403
REMARK  160  A    between atoms: _403  and  _404
REMARK  161  A    between atoms: _403  and  _406
REMARK  162  A    between atoms: _406  and  _407
REMARK  163  A    between atoms: _407  and  _408
REMARK  164  A    between atoms: _408  and  _409
REMARK  165  A    between atoms: _409  and  _410
REMARK  166  A    between atoms: _414  and  _416
REMARK  167  A    between atoms: _416  and  _417
REMARK  168  A    between atoms: _416  and  _419
REMARK  169  A    between atoms: _419  and  _420
REMARK  170  A    between atoms: _420  and  _421
REMARK  171  A    between atoms: _421  and  _422
REMARK  172  A    between atoms: _431  and  _433
REMARK  173  A    between atoms: _433  and  _434
REMARK  174  A    between atoms: _433  and  _436
REMARK  175  A    between atoms: _436  and  _437
REMARK  176  A    between atoms: _442  and  _444
REMARK  177  A    between atoms: _444  and  _445
REMARK  178  A    between atoms: _444  and  _447
REMARK  179  A    between atoms: _447  and  _448
REMARK  180  A    between atoms: _453  and  _454
REMARK  181  A    between atoms: _456  and  _458
REMARK  182  A    between atoms: _458  and  _459
REMARK  183  A    between atoms: _458  and  _461
REMARK  184  A    between atoms: _461  and  _462
REMARK  185  A    between atoms: _462  and  _463
REMARK  186  A    between atoms: _463  and  _464
REMARK  187  A    between atoms: _464  and  _465
REMARK  188  A    between atoms: _469  and  _471
REMARK  189  A    between atoms: _471  and  _472
REMARK  190  A    between atoms: _471  and  _474
REMARK  191  A    between atoms: _474  and  _475
REMARK  192  A    between atoms: _477  and  _479
REMARK  193  A    between atoms: _479  and  _480
REMARK  194  A    between atoms: _479  and  _482
REMARK  195  A    between atoms: _482  and  _483
REMARK  196  A    between atoms: _486  and  _488
REMARK  197  A    between atoms: _488  and  _489
REMARK  198  A    between atoms: _488  and  _491
REMARK  199  A    between atoms: _491  and  _492
REMARK  200  A    between atoms: _492  and  _493
REMARK  201  A    between atoms: _496  and  _498
REMARK  202  A    between atoms: _498  and  _499
REMARK  203  A    between atoms: _502  and  _504
REMARK  204  A    between atoms: _504  and  _505
REMARK  205  A    between atoms: _504  and  _507
REMARK  206  A    between atoms: _507  and  _508
REMARK  207  A    between atoms: _510  and  _512
REMARK  208  A    between atoms: _512  and  _513
REMARK  209  A    between atoms: _515  and  _517
REMARK  210  A    between atoms: _517  and  _518
REMARK  211  A    between atoms: _517  and  _520
REMARK  212  A    between atoms: _520  and  _521
REMARK  213  A    between atoms: _524  and  _526
REMARK  214  A    between atoms: _526  and  _527
REMARK  215  A    between atoms: _529  and  _531
REMARK  216  A    between atoms: _531  and  _532
REMARK  217  A    between atoms: _531  and  _534
REMARK  218  A    between atoms: _534  and  _535
REMARK  219  A    between atoms: _540  and  _542
REMARK  220  A    between atoms: _542  and  _543
REMARK  221  A    between atoms: _542  and  _545
REMARK  222  A    between atoms: _545  and  _546
REMARK  223  A    between atoms: _546  and  _547
REMARK  224  A    between atoms: _554  and  _555
REMARK  225  A    between atoms: _555  and  _571
REMARK  226  A    between atoms: _556  and  _558
REMARK  227  A    between atoms: _558  and  _559
REMARK  228  A    between atoms: _559  and  _560
REMARK  229  A    between atoms: _564  and  _566
REMARK  230  A    between atoms: _566  and  _567
REMARK  231  A    between atoms: _566  and  _574
REMARK  232  A    between atoms: _567  and  _568
REMARK  233  A    between atoms: _568  and  _569
REMARK  234  A    between atoms: _569  and  _570
REMARK  235  A    between atoms: _570  and  _571
REMARK  236  A    between atoms: _576  and  _578
REMARK  237  A    between atoms: _578  and  _579
REMARK  238  A    between atoms: _578  and  _581
REMARK  239  A    between atoms: _581  and  _582
REMARK  240  A    between atoms: _585  and  _587
REMARK  241  A    between atoms: _587  and  _588
REMARK  242  A    between atoms: _590  and  _592
REMARK  243  A    between atoms: _592  and  _593
REMARK  244  A    between atoms: _596  and  _598
REMARK  245  A    between atoms: _598  and  _599
REMARK  246  A    between atoms: _598  and  _601
REMARK  247  A    between atoms: _601  and  _602
REMARK  248  A    between atoms: _607  and  _608
REMARK                            x       y       z     vdW  Elec       q    Type
REMARK                         _______ _______ _______ _____ _____    ______ ____
ROOT
ATOM      1  CA  SER A   1      31.904  29.500  17.483  0.00  0.00    +0.163 C 
ENDROOT
BRANCH   1   2
ATOM      2  N   SER A   1      30.568  29.275  16.979  0.00  0.00    -0.237 NA
ATOM      3  H   SER A   1      30.087  28.387  17.228  0.00  0.00    +0.142 HD
ENDBRANCH   1   2
BRANCH   1   4
ATOM      4  C   SER A   1      32.867  29.490  16.256  0.00  0.00    +0.227 C 
ATOM      5  O   SER A   1      32.618  28.797  15.278  0.00  0.00    -0.287 OA
ENDBRANCH   1   4
BRANCH   1   6
ATOM      6  CB  SER A   1      32.239  28.365  18.391  0.00  0.00    +0.162 C 
BRANCH   6   7
ATOM      7  OG  SER A   1      32.076  27.108  17.721  0.00  0.00    -0.380 OA
ATOM      8  H   SER A   1      32.676  27.074  16.934  0.00  0.00    +0.211 HD
ENDBRANCH   6   7
ENDBRANCH   1   6
TORSDOF 4
REMARK  Name = ../refined-set-2016/4el5/4el5_pocket.pdb
REMARK  248 active torsions:
REMARK  status: ('A' for Active; 'I' for Inactive)
REMARK    1  A    between atoms: _1  and  _3
REMARK    2  A    between atoms: _3  and  _4
REMARK    3  A    between atoms: _3  and  _6
REMARK    4  A    between atoms: _6  and  _7
REMARK    5  A    between atoms: _12  and  _13
REMARK    6  A    between atoms: _15  and  _17
REMARK    7  A    between atoms: _17  and  _18
REMARK    8  A    between atoms: _17  and  _20
REMARK    9  A    between atoms: _20  and  _21
REMARK   10  A    between atoms: _21  and  _22
REMARK   11  A    between atoms: _25  and  _27
REMARK   12  A    between atoms: _27  and  _28
REMARK   13  A    between atoms: _27  and  _30
REMARK   14  A    between atoms: _30  and  _31
REMARK   15  A    between atoms: _36  and  _38
REMARK   16  A    between atoms: _38  and  _39
REMARK   17  A    between atoms: _41  and  _43
REMARK   18  A    between atoms: _43  and  _44
REMARK   19  A    between atoms: _46  and  _48
REMARK   20  A    between atoms: _48  and  _49
REMARK   21  A    between atoms: _48  and  _51
REMARK   22  A    between atoms: _51  and  _52
REMARK   23  A    between atoms: _55  and  _57
REMARK   24  A    between atoms: _57  and  _58
REMARK   25  A    between atoms: _60  and  _62
REMARK   26  A    between atoms: _62  and  _63
REMARK   27  A    between atoms: _62  and  _65
REMARK   28  A    between atoms: _65  and  _66
REMARK   29  A    between atoms: _66  and  _67
REMARK   30  A    between atoms: _67  and  _68
REMARK   31  A    between atoms: _77  and  _79
REMARK   32  A    between atoms: _79  and  _80
REMARK   33  A    between atoms: _79  and  _82
REMARK   34  A    between atoms: _82  and  _83
REMARK   35  A    between atoms: _86  and  _88
REMARK   36  A    between atoms: _88  and  _89
REMARK   37  A    between atoms: _92  and  _94
REMARK   38  A    between atoms: _94  and  _95
REMARK   39  A    between atoms: _94  and  _97
REMARK   40  A    between atoms: _97  and  _98
REMARK   41  A    between atoms: _104  and  _106
REMARK   42  A    between atoms: _106  and  _107
REMARK   43  A    between atoms: _106  and  _109
REMARK   44  A    between atoms: _109  and  _110
REMARK   45  A    between atoms: _115  and  _117
REMARK   46  A    between atoms: _117  and  _118
REMARK   47  A    between atoms: _117  and  _120
REMARK   48  A    between atoms: _120  and  _121
REMARK   49  A    between atoms: _124  and  _126
REMARK   50  A    between atoms: _126  and  _127
REMARK   51  A    between atoms: _126  and  _129
REMARK   52  A    between atoms: _129  and  _130
REMARK   53  A    between atoms: _135  and  _137
REMARK   54  A    between atoms: _137  and  _138
REMARK   55  A    between atoms: _137  and  _140
REMARK   56  A    between atoms: _140  and  _141
REMARK   57  A    between atoms: _147  and  _149
REMARK   58  A    between atoms: _149  and  _150
REMARK   59  A    between atoms: _149  and  _152
REMARK   60  A    between atoms: _152  and  _153
REMARK   61  A    between atoms: _159  and  _161
REMARK   62  A    between atoms: _161  and  _162
REMARK   63  A    between atoms: _161  and  _164
REMARK   64  A    between atoms: _164  and  _165
REMARK   65  A    between atoms: _165  and  _166
REMARK   66  A    between atoms: _166  and  _167
REMARK   67  A    between atoms: _176  and  _178
REMARK   68  A    between atoms: _178  and  _179
REMARK   69  A    between atoms: _178  and  _181
REMARK   70  A    between atoms: _181  and  _182
REMARK   71  A    between atoms: _187  and  _189
REMARK   72  A    between atoms: _189  and  _190
REMARK   73  A    between atoms: _189  and  _192
REMARK   74  A    between atoms: _192  and  _193
REMARK   75  A    between atoms: _196  and  _198
REMARK   76  A    between atoms: _198  and  _199
REMARK   77  A    between atoms: _198  and  _201
REMARK   78  A    between atoms: _201  and  _202
REMARK   79  A    between atoms: _205  and  _207
REMARK   80  A    between atoms: _207  and  _208
REMARK   81  A    between atoms: _207  and  _210
REMARK   82  A    between atoms: _210  and  _211
REMARK   83  A    between atoms: _216  and  _218
REMARK   84  A    between atoms: _218  and  _219
REMARK   85  A    between atoms: _218  and  _221
REMARK   86  A    between atoms: _221  and  _222
REMARK   87  A    between atoms: _227  and  _228
REMARK   88  A    between atoms: _230  and  _232
REMARK   89  A    between atoms: _232  and  _233
REMARK   90  A    between atoms: _232  and  _235
REMARK   91  A    between atoms: _235  and  _236
REMARK   92  A    between atoms: _239  and  _241
REMARK   93  A    between atoms: _241  and  _242
REMARK   94  A    between atoms: _241  and  _244
REMARK   95  A    between atoms: _244  and  _245
REMARK   96  A    between atoms: _250  and  _252
REMARK   97  A    between atoms: _252  and  _253
REMARK   98  A    between atoms: _252  and  _255
REMARK   99  A    between atoms: _255  and  _256
REMARK  100  A    between atoms: _261  and  _263
REMARK  101  A    between atoms: _263  and  _264
REMARK  102  A    between atoms: _263  and  _266
REMARK  103  A    between atoms: _266  and  _267
REMARK  104  A    between atoms: _270  and  _272
REMARK  105  A    between atoms: _272  and  _273
REMARK  106  A    between atoms: _272  and  _275
REMARK  107  A    between atoms: _278  and  _280
REMARK  108  A    between atoms: _280  and  _281
REMARK  109  A    between atoms: _280  and  _283
REMARK  110  A    between atoms: _283  and  _284
REMARK  111  A    between atoms: _287  and  _289
REMARK  112  A    between atoms: _289  and  _290
REMARK  113  A    between atoms: _289  and  _292
REMARK  114  A    between atoms: _292  and  _293
REMARK  115  A    between atoms: _293  and  _294
REMARK  116  A    between atoms: _297  and  _299
REMARK  117  A    between atoms: _299  and  _300
REMARK  118  A    between atoms: _303  and  _305
REMARK  119  A    between atoms: _305  and  _306
REMARK  120  A    between atoms: _305  and  _308
REMARK  121  A    between atoms: _308  and  _309
REMARK  122  A    between atoms: _312  and  _314
REMARK  123  A    between atoms: _314  and  _315
REMARK  124  A    between atoms: _314  and  _317
REMARK  125  A    between atoms: _317  and  _318
REMARK  126  A    between atoms: _318  and  _319
REMARK  127  A    between atoms: _322  and  _324
REMARK  128  A    between atoms: _324  and  _325
REMARK  129  A    between atoms: _324  and  _327
REMARK  130  A    between atoms: _327  and  _328
REMARK  131  A    between atoms: _333  and  _335
REMARK  132  A    between atoms: _335  and  _336
REMARK  133  A    between atoms: _338  and  _340
REMARK  134  A    between atoms: _340  and  _341
REMARK  135  A    between atoms: _340  and  _343
REMARK  136  A    between atoms: _346  and  _348
REMARK  137  A    between atoms: _348  and  _349
REMARK  138  A    between atoms: _352  and  _354
REMARK  139  A    between atoms: _354  and  _355
REMARK  140  A    between atoms: _354  and  _357
REMARK  141  A    between atoms: _357  and  _358
REMARK  142  A    between atoms: _363  and  _365
REMARK  143  A    between atoms: _365  and  _366
REMARK  144  A    between atoms: _365  and  _368
REMARK  145  A    between atoms: _368  and  _369
REMARK  146  A    between atoms: _369  and  _370
REMARK  147  A    between atoms: _370  and  _371
REMARK  148  A    between atoms: _371  and  _372
REMARK  149  A    between atoms: _376  and  _378
REMARK  150  A    between atoms: _378  and  _379
REMARK  151  A    between atoms: _378  and  _381
REMARK  152  A    between atoms: _381  and  _382
REMARK  153  A    between atoms: _385  and  _387
REMARK  154  A    between atoms: _387  and  _388
REMARK  155  A    between atoms: _387  and  _390
REMARK  156  A    between atoms: _390  and  _391
REMARK  157  A    between atoms: _396  and  _398
REMARK  158  A    between atoms: _398  and  _399
REMARK  159  A    between atoms: _401  and  _403
REMARK  160  A    between atoms: _403  and  _404
REMARK  161  A    between atoms: _403  and  _406
REMARK  162  A    between atoms: _406  and  _407
REMARK  163  A    between atoms: _407  and  _408
REMARK  164  A    between atoms: _408  and  _409
REMARK  165  A    between atoms: _409  and  _410
REMARK  166  A    between atoms: _414  and  _416
REMARK  167  A    between atoms: _416  and  _417
REMARK  168  A    between atoms: _416  and  _419
REMARK  169  A    between atoms: _419  and  _420
REMARK  170  A    between atoms: _420  and  _421
REMARK  171  A    between atoms: _421  and  _422
REMARK  172  A    between atoms: _431  and  _433
REMARK  173  A    between atoms: _433  and  _434
REMARK  174  A    between atoms: _433  and  _436
REMARK  175  A    between atoms: _436  and  _437
REMARK  176  A    between atoms: _442  and  _444
REMARK  177  A    between atoms: _444  and  _445
REMARK  178  A    between atoms: _444  and  _447
REMARK  179  A    between atoms: _447  and  _448
REMARK  180  A    between atoms: _453  and  _454
REMARK  181  A    between atoms: _456  and  _458
REMARK  182  A    between atoms: _458  and  _459
REMARK  183  A    between atoms: _458  and  _461
REMARK  184  A    between atoms: _461  and  _462
REMARK  185  A    between atoms: _462  and  _463
REMARK  186  A    between atoms: _463  and  _464
REMARK  187  A    between atoms: _464  and  _465
REMARK  188  A    between atoms: _469  and  _471
REMARK  189  A    between atoms: _471  and  _472
REMARK  190  A    between atoms: _471  and  _474
REMARK  191  A    between atoms: _474  and  _475
REMARK  192  A    between atoms: _477  and  _479
REMARK  193  A    between atoms: _479  and  _480
REMARK  194  A    between atoms: _479  and  _482
REMARK  195  A    between atoms: _482  and  _483
REMARK  196  A    between atoms: _486  and  _488
REMARK  197  A    between atoms: _488  and  _489
REMARK  198  A    between atoms: _488  and  _491
REMARK  199  A    between atoms: _491  and  _492
REMARK  200  A    between atoms: _492  and  _493
REMARK  201  A    between atoms: _496  and  _498
REMARK  202  A    between atoms: _498  and  _499
REMARK  203  A    between atoms: _502  and  _504
REMARK  204  A    between atoms: _504  and  _505
REMARK  205  A    between atoms: _504  and  _507
REMARK  206  A    between atoms: _507  and  _508
REMARK  207  A    between atoms: _510  and  _512
REMARK  208  A    between atoms: _512  and  _513
REMARK  209  A    between atoms: _515  and  _517
REMARK  210  A    between atoms: _517  and  _518
REMARK  211  A    between atoms: _517  and  _520
REMARK  212  A    between atoms: _520  and  _521
REMARK  213  A    between atoms: _524  and  _526
REMARK  214  A    between atoms: _526  and  _527
REMARK  215  A    between atoms: _529  and  _531
REMARK  216  A    between atoms: _531  and  _532
REMARK  217  A    between atoms: _531  and  _534
REMARK  218  A    between atoms: _534  and  _535
REMARK  219  A    between atoms: _540  and  _542
REMARK  220  A    between atoms: _542  and  _543
REMARK  221  A    between atoms: _542  and  _545
REMARK  222  A    between atoms: _545  and  _546
REMARK  223  A    between atoms: _546  and  _547
REMARK  224  A    between atoms: _554  and  _555
REMARK  225  A    between atoms: _555  and  _571
REMARK  226  A    between atoms: _556  and  _558
REMARK  227  A    between atoms: _558  and  _559
REMARK  228  A    between atoms: _559  and  _560
REMARK  229  A    between atoms: _564  and  _566
REMARK  230  A    between atoms: _566  and  _567
REMARK  231  A    between atoms: _566  and  _574
REMARK  232  A    between atoms: _567  and  _568
REMARK  233  A    between atoms: _568  and  _569
REMARK  234  A    between atoms: _569  and  _570
REMARK  235  A    between atoms: _570  and  _571
REMARK  236  A    between atoms: _576  and  _578
REMARK  237  A    between atoms: _578  and  _579
REMARK  238  A    between atoms: _578  and  _581
REMARK  239  A    between atoms: _581  and  _582
REMARK  240  A    between atoms: _585  and  _587
REMARK  241  A    between atoms: _587  and  _588
REMARK  242  A    between atoms: _590  and  _592
REMARK  243  A    between atoms: _592  and  _593
REMARK  244  A    between atoms: _596  and  _598
REMARK  245  A    between atoms: _598  and  _599
REMARK  246  A    between atoms: _598  and  _601
REMARK  247  A    between atoms: _601  and  _602
REMARK  248  A    between atoms: _607  and  _608
REMARK                            x       y       z     vdW  Elec       q    Type
REMARK                         _______ _______ _______ _____ _____    ______ ____
ROOT
ATOM      1  CA  GLY A   7      23.813  22.351  24.052  0.00  0.00    +0.176 C 
ENDROOT
BRANCH   1   2
ATOM      2  C   GLY A   7      23.354  21.994  22.588  0.00  0.00    +0.243 C 
ATOM      3  O   GLY A   7      22.144  21.853  22.295  0.00  0.00    -0.273 OA
ATOM      4  N   ASN A   8      24.332  21.957  21.666  0.00  0.00    -0.297 N 
ATOM      5  H   ASN A   8      25.319  22.134  21.943  0.00  0.00    +0.150 HD
BRANCH   4   6
ATOM      6  CA  ASN A   8      23.994  21.660  20.239  0.00  0.00    +0.158 C 
BRANCH   6   7
ATOM      7  C   ASN A   8      23.207  20.344  20.126  0.00  0.00    +0.241 C 
ATOM      8  N   MET A   9      23.655  19.324  20.884  0.00  0.00    -0.297 N 
ATOM      9  H   MET A   9      24.513  19.464  21.455  0.00  0.00    +0.150 HD
ATOM     10  O   ASN A   8      22.198  20.290  19.401  0.00  0.00    -0.273 OA
BRANCH   8  11
ATOM     11  CA  MET A   9      22.976  18.021  20.933  0.00  0.00    +0.149 C 
BRANCH  11  12
ATOM     12  C   MET A   9      21.562  18.096  21.492  0.00  0.00    +0.241 C 
ATOM     13  N   UNK A  10      21.388  18.854  22.586  0.00  0.00    -0.298 N 
ATOM     14  H   UNK A  10      22.206  19.334  23.012  0.00  0.00    +0.150 HD
ATOM     15  O   MET A   9      20.639  17.496  20.933  0.00  0.00    -0.273 OA
BRANCH  13  16
ATOM     16  C   UNK A  10      20.074  19.014  23.185  0.00  0.00    +0.137 C 
BRANCH  16  17
ATOM     17  C   UNK A  10      19.046  19.545  22.161  0.00  0.00    +0.227 C 
ATOM     18  O   UNK A  10      17.887  19.098  22.115  0.00  0.00    -0.286 OA
ENDBRANCH  16  17
BRANCH  16  19
ATOM     19  C   UNK A  10      20.160  19.962  24.409  0.00  0.00    +0.028 C 
BRANCH  19  20
ATOM     20  C   UNK A  10      21.210  19.532  25.446  0.00  0.00    -0.000 C 
BRANCH  20  21
ATOM     21  C   UNK A  10      21.305  20.523  26.653  0.00  0.00    -0.023 C 
BRANCH  21  22
ATOM     22  C   UNK A  10      22.658  20.329  27.401  0.00  0.00    -0.081 C 
BRANCH  22  23
ATOM     23  N   UNK A  10      22.934  21.509  28.352  0.00  0.00    +0.387 N 
ATOM     24  H   UNK A  10      22.140  22.179  28.298  0.00  0.00    -0.084 HD
ATOM     25  H   UNK A  10      23.016  21.148  29.324  0.00  0.00    -0.084 HD
BRANCH  23  26
ATOM     26  C   UNK A  10      24.057  22.143  28.031  0.00  0.00    -0.051 C 
BRANCH  26  27
ATOM     27  C   UNK A  10      24.303  23.379  28.872  0.00  0.00    -0.004 A 
ATOM     28  C   UNK A  10      25.464  24.142  28.682  0.00  0.00    +0.024 A 
ATOM     29  C   UNK A  10      25.702  25.281  29.435  0.00  0.00    +0.096 A 
ATOM     30  N   UNK A  10      24.788  25.602  30.385  0.00  0.00    -0.245 NA
ATOM     31  C   UNK A  10      23.676  24.873  30.617  0.00  0.00    +0.098 A 
ATOM     32  C   UNK A  10      22.682  25.321  31.669  0.00  0.00    +0.056 C 
ATOM     33  C   UNK A  10      23.396  23.752  29.882  0.00  0.00    +0.203 A 
ATOM     34  O   UNK A  10      22.328  23.098  30.154  0.00  0.00    -0.286 OA
BRANCH  28  35
ATOM     35  C   UNK A  10      26.490  23.828  27.593  0.00  0.00    +0.181 C 
BRANCH  35  36
ATOM     36  O   UNK A  10      26.031  24.550  26.397  0.00  0.00    -0.265 OA
BRANCH  36  37
ATOM     37  P   UNK A  10      27.096  24.736  25.141  0.00  0.00    +0.533 P 
ATOM     38  O   UNK A  10      27.670  23.414  24.800  0.00  0.00    -0.115 OA
ATOM     39  O   UNK A  10      28.090  25.587  25.797  0.00  0.00    -0.115 OA
ATOM     40  O   UNK A  10      26.163  25.416  24.207  0.00  0.00    -0.222 OA
ENDBRANCH  36  37
ENDBRANCH  35  36
ENDBRANCH  28  35
ENDBRANCH  26  27
ENDBRANCH  23  26
ENDBRANCH  22  23
ENDBRANCH  21  22
ENDBRANCH  20  21
ENDBRANCH  19  20
ENDBRANCH  16  19
ENDBRANCH  13  16
ENDBRANCH  11  12
BRANCH  11  41
ATOM     41  CB  MET A   9      23.790  16.962  21.659  0.00  0.00    +0.041 C 
BRANCH  41  42
ATOM     42  CG  MET A   9      25.176  16.895  21.060  0.00  0.00    +0.060 C 
BRANCH  42  43
ATOM     43  SD  MET A   9      26.255  16.037  22.195  0.00  0.00    -0.139 S 
ATOM     44  CE  MET A   9      27.880  16.168  21.395  0.00  0.00    +0.069 C 
ENDBRANCH  42  43
ENDBRANCH  41  42
ENDBRANCH  11  41
ENDBRANCH   8  11
ENDBRANCH   6   7
BRANCH   6  45
ATOM     45  CB  ASN A   8      25.255  21.659  19.339  0.00  0.00    +0.114 C 
BRANCH  45  46
ATOM     46  CG  ASN A   8      26.444  20.822  19.930  0.00  0.00    +0.222 C 
ATOM     47  ND2 ASN A   8      26.247  20.168  21.085  0.00  0.00    -0.329 N 
ATOM     48 HD21 ASN A   8      25.337  20.251  21.581  0.00  0.00    +0.145 HD
ATOM     49 HD22 ASN A   8      27.005  19.578  21.484  0.00  0.00    +0.145 HD
ATOM     50  OD1 ASN A   8      27.534  20.746  19.300  0.00  0.00    -0.275 OA
ENDBRANCH  45  46
ENDBRANCH   6  45
ENDBRANCH   4   6
ENDBRANCH   1   2
BRANCH   1  52
ATOM     51  C   THR A   6      25.184  20.336  24.069  0.00  0.00    +0.243 C 
ATOM     52  N   GLY A   7      25.099  21.641  24.212  0.00  0.00    -0.295 N 
ATOM     53  H   GLY A   7      25.955  22.185  24.443  0.00  0.00    +0.150 HD
ATOM     54  O   THR A   6      24.202  19.612  23.800  0.00  0.00    -0.273 OA
BRANCH  51  55
ATOM     55  CA  THR A   6      26.582  19.748  24.199  0.00  0.00    +0.176 C 
BRANCH  55  57
ATOM     56  C   GLY A   5      28.640  20.466  23.027  0.00  0.00    +0.243 C 
ATOM     57  N   THR A   6      27.595  20.757  23.818  0.00  0.00    -0.295 N 
ATOM     58  H   THR A   6      27.494  21.728  24.176  0.00  0.00    +0.150 HD
ATOM     59  O   GLY A   5      28.936  19.294  22.675  0.00  0.00    -0.273 OA
BRANCH  56  60
ATOM     60  CA  GLY A   5      29.561  21.610  22.651  0.00  0.00    +0.176 C 
BRANCH  60  62
ATOM     61  C   SER A   4      31.332  20.528  21.322  0.00  0.00    +0.243 C 
ATOM     62  N   GLY A   5      30.939  21.132  22.473  0.00  0.00    -0.295 N 
ATOM     63  H   GLY A   5      31.626  21.259  23.243  0.00  0.00    +0.150 HD
ATOM     64  O   SER A   4      30.688  20.591  20.224  0.00  0.00    -0.273 OA
BRANCH  61  65
ATOM     65  CA  SER A   4      32.630  19.738  21.418  0.00  0.00    +0.178 C 
BRANCH  65  67
ATOM     66  C   ALA A   3      34.882  20.539  21.398  0.00  0.00    +0.241 C 
ATOM     67  N   SER A   4      33.674  20.627  21.907  0.00  0.00    -0.295 N 
ATOM     68  H   SER A   4      33.466  21.324  22.651  0.00  0.00    +0.150 HD
ATOM     69  O   ALA A   3      35.183  19.645  20.601  0.00  0.00    -0.273 OA
BRANCH  66  70
ATOM     70  CA  ALA A   3      35.933  21.590  21.876  0.00  0.00    +0.149 C 
ATOM     71  CB  ALA A   3      36.507  21.207  23.287  0.00  0.00    +0.031 C 
BRANCH  70  73
ATOM     72  C   GLU A   2      34.799  23.424  20.759  0.00  0.00    +0.241 C 
ATOM     73  N   ALA A   3      35.380  22.940  21.864  0.00  0.00    -0.297 N 
ATOM     74  H   ALA A   3      35.437  23.530  22.719  0.00  0.00    +0.150 HD
ATOM     75  O   GLU A   2      34.709  22.736  19.732  0.00  0.00    -0.273 OA
BRANCH  72  76
ATOM     76  CA  GLU A   2      34.336  24.872  20.784  0.00  0.00    +0.149 C 
BRANCH  76  79
ATOM     77  C   THR A   1      36.487  26.111  20.488  0.00  0.00    +0.241 C 
ATOM     78  O   THR A   1      36.791  25.964  21.664  0.00  0.00    -0.274 OA
ATOM     79  N   GLU A   2      35.295  25.697  19.991  0.00  0.00    -0.297 N 
ATOM     80  H   GLU A   2      35.039  25.965  19.019  0.00  0.00    +0.150 HD
BRANCH  77  81
ATOM     81  CA  THR A   1      37.514  26.780  19.526  0.00  0.00    +0.172 C 
BRANCH  81  82
ATOM     82  N   THR A   1      37.517  26.151  18.161  0.00  0.00    -0.236 NA
ATOM     83  H   THR A   1      36.648  26.161  17.589  0.00  0.00    +0.142 HD
ENDBRANCH  81  82
BRANCH  81  84
ATOM     84  CB  THR A   1      37.252  28.291  19.469  0.00  0.00    +0.135 C 
ATOM     85  CG2 THR A   1      38.336  29.024  18.616  0.00  0.00    +0.034 C 
BRANCH  84  86
ATOM     86  OG1 THR A   1      35.932  28.520  18.961  0.00  0.00    -0.383 OA
ATOM     87  HG1 THR A   1      35.858  28.134  18.052  0.00  0.00    +0.210 HD
ENDBRANCH  84  86
ENDBRANCH  81  84
ENDBRANCH  77  81
ENDBRANCH  76  79
BRANCH  76  88
ATOM     88  CB  GLU A   2      32.896  25.003  20.241  0.00  0.00    +0.041 C 
BRANCH  88  89
ATOM     89  CG  GLU A   2      31.822  24.475  21.233  0.00  0.00    +0.116 C 
BRANCH  89  90
ATOM     90  CD  GLU A   2      31.674  25.406  22.452  0.00  0.00    +0.365 C 
ATOM     91  OE2 GLU A   2      32.330  25.129  23.481  0.00  0.00    -0.246 OA
ATOM     92  OE1 GLU A   2      30.962  26.447  22.358  0.00  0.00    -0.246 OA
ENDBRANCH  89  90
ENDBRANCH  88  89
ENDBRANCH  76  88
ENDBRANCH  72  76
ENDBRANCH  70  73
ENDBRANCH  66  70
ENDBRANCH  65  67
BRANCH  65  93
ATOM     93  CB  SER A   4      32.452  18.569  22.383  0.00  0.00    +0.166 C 
BRANCH  93  94
ATOM     94  OG  SER A   4      31.231  17.845  22.133  0.00  0.00    -0.380 OA
ATOM     95  H   SER A   4      30.459  18.455  22.240  0.00  0.00    +0.211 HD
ENDBRANCH  93  94
ENDBRANCH  65  93
ENDBRANCH  61  65
ENDBRANCH  60  62
ENDBRANCH  56  60
ENDBRANCH  55  57
BRANCH  55  96
ATOM     96  CB  THR A   6      26.729  19.222  25.665  0.00  0.00    +0.137 C 
ATOM     97  CG2 THR A   6      27.967  18.410  25.770  0.00  0.00    +0.034 C 
BRANCH  96  98
ATOM     98  OG1 THR A   6      26.809  20.354  26.506  0.00  0.00    -0.382 OA
ATOM     99  HG1 THR A   6      26.903  20.059  27.446  0.00  0.00    +0.210 HD
ENDBRANCH  96  98
ENDBRANCH  55  96
ENDBRANCH  51  55
ENDBRANCH   1  52
TORSDOF 44
REMARK  Name = ../refined-set-2016/4el5/4el5_pocket.pdb
REMARK  248 active torsions:
REMARK  status: ('A' for Active; 'I' for Inactive)
REMARK    1  A    between atoms: _1  and  _3
REMARK    2  A    between atoms: _3  and  _4
REMARK    3  A    between atoms: _3  and  _6
REMARK    4  A    between atoms: _6  and  _7
REMARK    5  A    between atoms: _12  and  _13
REMARK    6  A    between atoms: _15  and  _17
REMARK    7  A    between atoms: _17  and  _18
REMARK    8  A    between atoms: _17  and  _20
REMARK    9  A    between atoms: _20  and  _21
REMARK   10  A    between atoms: _21  and  _22
REMARK   11  A    between atoms: _25  and  _27
REMARK   12  A    between atoms: _27  and  _28
REMARK   13  A    between atoms: _27  and  _30
REMARK   14  A    between atoms: _30  and  _31
REMARK   15  A    between atoms: _36  and  _38
REMARK   16  A    between atoms: _38  and  _39
REMARK   17  A    between atoms: _41  and  _43
REMARK   18  A    between atoms: _43  and  _44
REMARK   19  A    between atoms: _46  and  _48
REMARK   20  A    between atoms: _48  and  _49
REMARK   21  A    between atoms: _48  and  _51
REMARK   22  A    between atoms: _51  and  _52
REMARK   23  A    between atoms: _55  and  _57
REMARK   24  A    between atoms: _57  and  _58
REMARK   25  A    between atoms: _60  and  _62
REMARK   26  A    between atoms: _62  and  _63
REMARK   27  A    between atoms: _62  and  _65
REMARK   28  A    between atoms: _65  and  _66
REMARK   29  A    between atoms: _66  and  _67
REMARK   30  A    between atoms: _67  and  _68
REMARK   31  A    between atoms: _77  and  _79
REMARK   32  A    between atoms: _79  and  _80
REMARK   33  A    between atoms: _79  and  _82
REMARK   34  A    between atoms: _82  and  _83
REMARK   35  A    between atoms: _86  and  _88
REMARK   36  A    between atoms: _88  and  _89
REMARK   37  A    between atoms: _92  and  _94
REMARK   38  A    between atoms: _94  and  _95
REMARK   39  A    between atoms: _94  and  _97
REMARK   40  A    between atoms: _97  and  _98
REMARK   41  A    between atoms: _104  and  _106
REMARK   42  A    between atoms: _106  and  _107
REMARK   43  A    between atoms: _106  and  _109
REMARK   44  A    between atoms: _109  and  _110
REMARK   45  A    between atoms: _115  and  _117
REMARK   46  A    between atoms: _117  and  _118
REMARK   47  A    between atoms: _117  and  _120
REMARK   48  A    between atoms: _120  and  _121
REMARK   49  A    between atoms: _124  and  _126
REMARK   50  A    between atoms: _126  and  _127
REMARK   51  A    between atoms: _126  and  _129
REMARK   52  A    between atoms: _129  and  _130
REMARK   53  A    between atoms: _135  and  _137
REMARK   54  A    between atoms: _137  and  _138
REMARK   55  A    between atoms: _137  and  _140
REMARK   56  A    between atoms: _140  and  _141
REMARK   57  A    between atoms: _147  and  _149
REMARK   58  A    between atoms: _149  and  _150
REMARK   59  A    between atoms: _149  and  _152
REMARK   60  A    between atoms: _152  and  _153
REMARK   61  A    between atoms: _159  and  _161
REMARK   62  A    between atoms: _161  and  _162
REMARK   63  A    between atoms: _161  and  _164
REMARK   64  A    between atoms: _164  and  _165
REMARK   65  A    between atoms: _165  and  _166
REMARK   66  A    between atoms: _166  and  _167
REMARK   67  A    between atoms: _176  and  _178
REMARK   68  A    between atoms: _178  and  _179
REMARK   69  A    between atoms: _178  and  _181
REMARK   70  A    between atoms: _181  and  _182
REMARK   71  A    between atoms: _187  and  _189
REMARK   72  A    between atoms: _189  and  _190
REMARK   73  A    between atoms: _189  and  _192
REMARK   74  A    between atoms: _192  and  _193
REMARK   75  A    between atoms: _196  and  _198
REMARK   76  A    between atoms: _198  and  _199
REMARK   77  A    between atoms: _198  and  _201
REMARK   78  A    between atoms: _201  and  _202
REMARK   79  A    between atoms: _205  and  _207
REMARK   80  A    between atoms: _207  and  _208
REMARK   81  A    between atoms: _207  and  _210
REMARK   82  A    between atoms: _210  and  _211
REMARK   83  A    between atoms: _216  and  _218
REMARK   84  A    between atoms: _218  and  _219
REMARK   85  A    between atoms: _218  and  _221
REMARK   86  A    between atoms: _221  and  _222
REMARK   87  A    between atoms: _227  and  _228
REMARK   88  A    between atoms: _230  and  _232
REMARK   89  A    between atoms: _232  and  _233
REMARK   90  A    between atoms: _232  and  _235
REMARK   91  A    between atoms: _235  and  _236
REMARK   92  A    between atoms: _239  and  _241
REMARK   93  A    between atoms: _241  and  _242
REMARK   94  A    between atoms: _241  and  _244
REMARK   95  A    between atoms: _244  and  _245
REMARK   96  A    between atoms: _250  and  _252
REMARK   97  A    between atoms: _252  and  _253
REMARK   98  A    between atoms: _252  and  _255
REMARK   99  A    between atoms: _255  and  _256
REMARK  100  A    between atoms: _261  and  _263
REMARK  101  A    between atoms: _263  and  _264
REMARK  102  A    between atoms: _263  and  _266
REMARK  103  A    between atoms: _266  and  _267
REMARK  104  A    between atoms: _270  and  _272
REMARK  105  A    between atoms: _272  and  _273
REMARK  106  A    between atoms: _272  and  _275
REMARK  107  A    between atoms: _278  and  _280
REMARK  108  A    between atoms: _280  and  _281
REMARK  109  A    between atoms: _280  and  _283
REMARK  110  A    between atoms: _283  and  _284
REMARK  111  A    between atoms: _287  and  _289
REMARK  112  A    between atoms: _289  and  _290
REMARK  113  A    between atoms: _289  and  _292
REMARK  114  A    between atoms: _292  and  _293
REMARK  115  A    between atoms: _293  and  _294
REMARK  116  A    between atoms: _297  and  _299
REMARK  117  A    between atoms: _299  and  _300
REMARK  118  A    between atoms: _303  and  _305
REMARK  119  A    between atoms: _305  and  _306
REMARK  120  A    between atoms: _305  and  _308
REMARK  121  A    between atoms: _308  and  _309
REMARK  122  A    between atoms: _312  and  _314
REMARK  123  A    between atoms: _314  and  _315
REMARK  124  A    between atoms: _314  and  _317
REMARK  125  A    between atoms: _317  and  _318
REMARK  126  A    between atoms: _318  and  _319
REMARK  127  A    between atoms: _322  and  _324
REMARK  128  A    between atoms: _324  and  _325
REMARK  129  A    between atoms: _324  and  _327
REMARK  130  A    between atoms: _327  and  _328
REMARK  131  A    between atoms: _333  and  _335
REMARK  132  A    between atoms: _335  and  _336
REMARK  133  A    between atoms: _338  and  _340
REMARK  134  A    between atoms: _340  and  _341
REMARK  135  A    between atoms: _340  and  _343
REMARK  136  A    between atoms: _346  and  _348
REMARK  137  A    between atoms: _348  and  _349
REMARK  138  A    between atoms: _352  and  _354
REMARK  139  A    between atoms: _354  and  _355
REMARK  140  A    between atoms: _354  and  _357
REMARK  141  A    between atoms: _357  and  _358
REMARK  142  A    between atoms: _363  and  _365
REMARK  143  A    between atoms: _365  and  _366
REMARK  144  A    between atoms: _365  and  _368
REMARK  145  A    between atoms: _368  and  _369
REMARK  146  A    between atoms: _369  and  _370
REMARK  147  A    between atoms: _370  and  _371
REMARK  148  A    between atoms: _371  and  _372
REMARK  149  A    between atoms: _376  and  _378
REMARK  150  A    between atoms: _378  and  _379
REMARK  151  A    between atoms: _378  and  _381
REMARK  152  A    between atoms: _381  and  _382
REMARK  153  A    between atoms: _385  and  _387
REMARK  154  A    between atoms: _387  and  _388
REMARK  155  A    between atoms: _387  and  _390
REMARK  156  A    between atoms: _390  and  _391
REMARK  157  A    between atoms: _396  and  _398
REMARK  158  A    between atoms: _398  and  _399
REMARK  159  A    between atoms: _401  and  _403
REMARK  160  A    between atoms: _403  and  _404
REMARK  161  A    between atoms: _403  and  _406
REMARK  162  A    between atoms: _406  and  _407
REMARK  163  A    between atoms: _407  and  _408
REMARK  164  A    between atoms: _408  and  _409
REMARK  165  A    between atoms: _409  and  _410
REMARK  166  A    between atoms: _414  and  _416
REMARK  167  A    between atoms: _416  and  _417
REMARK  168  A    between atoms: _416  and  _419
REMARK  169  A    between atoms: _419  and  _420
REMARK  170  A    between atoms: _420  and  _421
REMARK  171  A    between atoms: _421  and  _422
REMARK  172  A    between atoms: _431  and  _433
REMARK  173  A    between atoms: _433  and  _434
REMARK  174  A    between atoms: _433  and  _436
REMARK  175  A    between atoms: _436  and  _437
REMARK  176  A    between atoms: _442  and  _444
REMARK  177  A    between atoms: _444  and  _445
REMARK  178  A    between atoms: _444  and  _447
REMARK  179  A    between atoms: _447  and  _448
REMARK  180  A    between atoms: _453  and  _454
REMARK  181  A    between atoms: _456  and  _458
REMARK  182  A    between atoms: _458  and  _459
REMARK  183  A    between atoms: _458  and  _461
REMARK  184  A    between atoms: _461  and  _462
REMARK  185  A    between atoms: _462  and  _463
REMARK  186  A    between atoms: _463  and  _464
REMARK  187  A    between atoms: _464  and  _465
REMARK  188  A    between atoms: _469  and  _471
REMARK  189  A    between atoms: _471  and  _472
REMARK  190  A    between atoms: _471  and  _474
REMARK  191  A    between atoms: _474  and  _475
REMARK  192  A    between atoms: _477  and  _479
REMARK  193  A    between atoms: _479  and  _480
REMARK  194  A    between atoms: _479  and  _482
REMARK  195  A    between atoms: _482  and  _483
REMARK  196  A    between atoms: _486  and  _488
REMARK  197  A    between atoms: _488  and  _489
REMARK  198  A    between atoms: _488  and  _491
REMARK  199  A    between atoms: _491  and  _492
REMARK  200  A    between atoms: _492  and  _493
REMARK  201  A    between atoms: _496  and  _498
REMARK  202  A    between atoms: _498  and  _499
REMARK  203  A    between atoms: _502  and  _504
REMARK  204  A    between atoms: _504  and  _505
REMARK  205  A    between atoms: _504  and  _507
REMARK  206  A    between atoms: _507  and  _508
REMARK  207  A    between atoms: _510  and  _512
REMARK  208  A    between atoms: _512  and  _513
REMARK  209  A    between atoms: _515  and  _517
REMARK  210  A    between atoms: _517  and  _518
REMARK  211  A    between atoms: _517  and  _520
REMARK  212  A    between atoms: _520  and  _521
REMARK  213  A    between atoms: _524  and  _526
REMARK  214  A    between atoms: _526  and  _527
REMARK  215  A    between atoms: _529  and  _531
REMARK  216  A    between atoms: _531  and  _532
REMARK  217  A    between atoms: _531  and  _534
REMARK  218  A    between atoms: _534  and  _535
REMARK  219  A    between atoms: _540  and  _542
REMARK  220  A    between atoms: _542  and  _543
REMARK  221  A    between atoms: _542  and  _545
REMARK  222  A    between atoms: _545  and  _546
REMARK  223  A    between atoms: _546  and  _547
REMARK  224  A    between atoms: _554  and  _555
REMARK  225  A    between atoms: _555  and  _571
REMARK  226  A    between atoms: _556  and  _558
REMARK  227  A    between atoms: _558  and  _559
REMARK  228  A    between atoms: _559  and  _560
REMARK  229  A    between atoms: _564  and  _566
REMARK  230  A    between atoms: _566  and  _567
REMARK  231  A    between atoms: _566  and  _574
REMARK  232  A    between atoms: _567  and  _568
REMARK  233  A    between atoms: _568  and  _569
REMARK  234  A    between atoms: _569  and  _570
REMARK  235  A    between atoms: _570  and  _571
REMARK  236  A    between atoms: _576  and  _578
REMARK  237  A    between atoms: _578  and  _579
REMARK  238  A    between atoms: _578  and  _581
REMARK  239  A    between atoms: _581  and  _582
REMARK  240  A    between atoms: _585  and  _587
REMARK  241  A    between atoms: _587  and  _588
REMARK  242  A    between atoms: _590  and  _592
REMARK  243  A    between atoms: _592  and  _593
REMARK  244  A    between atoms: _596  and  _598
REMARK  245  A    between atoms: _598  and  _599
REMARK  246  A    between atoms: _598  and  _601
REMARK  247  A    between atoms: _601  and  _602
REMARK  248  A    between atoms: _607  and  _608
REMARK                            x       y       z     vdW  Elec       q    Type
REMARK                         _______ _______ _______ _____ _____    ______ ____
ROOT
ATOM      1  C   ASP A   1      32.922  22.100  15.876  0.00  0.00    +0.239 C 
ATOM      2  N   GLY A   2      33.835  21.517  16.663  0.00  0.00    -0.296 N 
ATOM      3  H   GLY A   2      34.848  21.716  16.539  0.00  0.00    +0.150 HD
ATOM      4  O   ASP A   1      31.719  21.794  15.882  0.00  0.00    -0.274 OA
ENDROOT
BRANCH   1   5
ATOM      5  CA  ASP A   1      33.413  23.159  14.890  0.00  0.00    +0.156 C 
BRANCH   5   6
ATOM      6  N   ASP A   1      32.612  23.073  13.664  0.00  0.00    -0.238 NA
ATOM      7  H   ASP A   1      31.579  22.986  13.745  0.00  0.00    +0.142 HD
ENDBRANCH   5   6
BRANCH   5   8
ATOM      8  CB  ASP A   1      33.278  24.537  15.545  0.00  0.00    +0.140 C 
BRANCH   8   9
ATOM      9  CG  ASP A   1      34.413  24.805  16.549  0.00  0.00    +0.367 C 
ATOM     10  OD2 ASP A   1      34.276  25.717  17.368  0.00  0.00    -0.246 OA
ATOM     11  OD1 ASP A   1      35.422  24.058  16.521  0.00  0.00    -0.246 OA
ENDBRANCH   8   9
ENDBRANCH   5   8
ENDBRANCH   1   5
BRANCH   2  12
ATOM     12  CA  GLY A   2      33.367  20.577  17.720  0.00  0.00    +0.176 C 
BRANCH  12  13
ATOM     13  C   GLY A   2      32.491  19.462  17.201  0.00  0.00    +0.243 C 
ATOM     14  N   ALA A   3      31.479  19.113  17.972  0.00  0.00    -0.298 N 
ATOM     15  H   ALA A   3      31.329  19.610  18.873  0.00  0.00    +0.150 HD
ATOM     16  O   GLY A   2      32.739  18.903  16.108  0.00  0.00    -0.273 OA
BRANCH  14  17
ATOM     17  CA  ALA A   3      30.578  18.057  17.590  0.00  0.00    +0.137 C 
ATOM     18  CB  ALA A   3      29.770  17.540  18.780  0.00  0.00    +0.030 C 
BRANCH  17  19
ATOM     19  C   ALA A   3      29.637  18.395  16.425  0.00  0.00    +0.227 C 
ATOM     20  O   ALA A   3      29.024  17.465  15.933  0.00  0.00    -0.286 OA
ENDBRANCH  17  19
ENDBRANCH  14  17
ENDBRANCH  12  13
ENDBRANCH   2  12
TORSDOF 8
REMARK  Name = ../refined-set-2016/4el5/4el5_pocket.pdb
REMARK  248 active torsions:
REMARK  status: ('A' for Active; 'I' for Inactive)
REMARK    1  A    between atoms: _1  and  _3
REMARK    2  A    between atoms: _3  and  _4
REMARK    3  A    between atoms: _3  and  _6
REMARK    4  A    between atoms: _6  and  _7
REMARK    5  A    between atoms: _12  and  _13
REMARK    6  A    between atoms: _15  and  _17
REMARK    7  A    between atoms: _17  and  _18
REMARK    8  A    between atoms: _17  and  _20
REMARK    9  A    between atoms: _20  and  _21
REMARK   10  A    between atoms: _21  and  _22
REMARK   11  A    between atoms: _25  and  _27
REMARK   12  A    between atoms: _27  and  _28
REMARK   13  A    between atoms: _27  and  _30
REMARK   14  A    between atoms: _30  and  _31
REMARK   15  A    between atoms: _36  and  _38
REMARK   16  A    between atoms: _38  and  _39
REMARK   17  A    between atoms: _41  and  _43
REMARK   18  A    between atoms: _43  and  _44
REMARK   19  A    between atoms: _46  and  _48
REMARK   20  A    between atoms: _48  and  _49
REMARK   21  A    between atoms: _48  and  _51
REMARK   22  A    between atoms: _51  and  _52
REMARK   23  A    between atoms: _55  and  _57
REMARK   24  A    between atoms: _57  and  _58
REMARK   25  A    between atoms: _60  and  _62
REMARK   26  A    between atoms: _62  and  _63
REMARK   27  A    between atoms: _62  and  _65
REMARK   28  A    between atoms: _65  and  _66
REMARK   29  A    between atoms: _66  and  _67
REMARK   30  A    between atoms: _67  and  _68
REMARK   31  A    between atoms: _77  and  _79
REMARK   32  A    between atoms: _79  and  _80
REMARK   33  A    between atoms: _79  and  _82
REMARK   34  A    between atoms: _82  and  _83
REMARK   35  A    between atoms: _86  and  _88
REMARK   36  A    between atoms: _88  and  _89
REMARK   37  A    between atoms: _92  and  _94
REMARK   38  A    between atoms: _94  and  _95
REMARK   39  A    between atoms: _94  and  _97
REMARK   40  A    between atoms: _97  and  _98
REMARK   41  A    between atoms: _104  and  _106
REMARK   42  A    between atoms: _106  and  _107
REMARK   43  A    between atoms: _106  and  _109
REMARK   44  A    between atoms: _109  and  _110
REMARK   45  A    between atoms: _115  and  _117
REMARK   46  A    between atoms: _117  and  _118
REMARK   47  A    between atoms: _117  and  _120
REMARK   48  A    between atoms: _120  and  _121
REMARK   49  A    between atoms: _124  and  _126
REMARK   50  A    between atoms: _126  and  _127
REMARK   51  A    between atoms: _126  and  _129
REMARK   52  A    between atoms: _129  and  _130
REMARK   53  A    between atoms: _135  and  _137
REMARK   54  A    between atoms: _137  and  _138
REMARK   55  A    between atoms: _137  and  _140
REMARK   56  A    between atoms: _140  and  _141
REMARK   57  A    between atoms: _147  and  _149
REMARK   58  A    between atoms: _149  and  _150
REMARK   59  A    between atoms: _149  and  _152
REMARK   60  A    between atoms: _152  and  _153
REMARK   61  A    between atoms: _159  and  _161
REMARK   62  A    between atoms: _161  and  _162
REMARK   63  A    between atoms: _161  and  _164
REMARK   64  A    between atoms: _164  and  _165
REMARK   65  A    between atoms: _165  and  _166
REMARK   66  A    between atoms: _166  and  _167
REMARK   67  A    between atoms: _176  and  _178
REMARK   68  A    between atoms: _178  and  _179
REMARK   69  A    between atoms: _178  and  _181
REMARK   70  A    between atoms: _181  and  _182
REMARK   71  A    between atoms: _187  and  _189
REMARK   72  A    between atoms: _189  and  _190
REMARK   73  A    between atoms: _189  and  _192
REMARK   74  A    between atoms: _192  and  _193
REMARK   75  A    between atoms: _196  and  _198
REMARK   76  A    between atoms: _198  and  _199
REMARK   77  A    between atoms: _198  and  _201
REMARK   78  A    between atoms: _201  and  _202
REMARK   79  A    between atoms: _205  and  _207
REMARK   80  A    between atoms: _207  and  _208
REMARK   81  A    between atoms: _207  and  _210
REMARK   82  A    between atoms: _210  and  _211
REMARK   83  A    between atoms: _216  and  _218
REMARK   84  A    between atoms: _218  and  _219
REMARK   85  A    between atoms: _218  and  _221
REMARK   86  A    between atoms: _221  and  _222
REMARK   87  A    between atoms: _227  and  _228
REMARK   88  A    between atoms: _230  and  _232
REMARK   89  A    between atoms: _232  and  _233
REMARK   90  A    between atoms: _232  and  _235
REMARK   91  A    between atoms: _235  and  _236
REMARK   92  A    between atoms: _239  and  _241
REMARK   93  A    between atoms: _241  and  _242
REMARK   94  A    between atoms: _241  and  _244
REMARK   95  A    between atoms: _244  and  _245
REMARK   96  A    between atoms: _250  and  _252
REMARK   97  A    between atoms: _252  and  _253
REMARK   98  A    between atoms: _252  and  _255
REMARK   99  A    between atoms: _255  and  _256
REMARK  100  A    between atoms: _261  and  _263
REMARK  101  A    between atoms: _263  and  _264
REMARK  102  A    between atoms: _263  and  _266
REMARK  103  A    between atoms: _266  and  _267
REMARK  104  A    between atoms: _270  and  _272
REMARK  105  A    between atoms: _272  and  _273
REMARK  106  A    between atoms: _272  and  _275
REMARK  107  A    between atoms: _278  and  _280
REMARK  108  A    between atoms: _280  and  _281
REMARK  109  A    between atoms: _280  and  _283
REMARK  110  A    between atoms: _283  and  _284
REMARK  111  A    between atoms: _287  and  _289
REMARK  112  A    between atoms: _289  and  _290
REMARK  113  A    between atoms: _289  and  _292
REMARK  114  A    between atoms: _292  and  _293
REMARK  115  A    between atoms: _293  and  _294
REMARK  116  A    between atoms: _297  and  _299
REMARK  117  A    between atoms: _299  and  _300
REMARK  118  A    between atoms: _303  and  _305
REMARK  119  A    between atoms: _305  and  _306
REMARK  120  A    between atoms: _305  and  _308
REMARK  121  A    between atoms: _308  and  _309
REMARK  122  A    between atoms: _312  and  _314
REMARK  123  A    between atoms: _314  and  _315
REMARK  124  A    between atoms: _314  and  _317
REMARK  125  A    between atoms: _317  and  _318
REMARK  126  A    between atoms: _318  and  _319
REMARK  127  A    between atoms: _322  and  _324
REMARK  128  A    between atoms: _324  and  _325
REMARK  129  A    between atoms: _324  and  _327
REMARK  130  A    between atoms: _327  and  _328
REMARK  131  A    between atoms: _333  and  _335
REMARK  132  A    between atoms: _335  and  _336
REMARK  133  A    between atoms: _338  and  _340
REMARK  134  A    between atoms: _340  and  _341
REMARK  135  A    between atoms: _340  and  _343
REMARK  136  A    between atoms: _346  and  _348
REMARK  137  A    between atoms: _348  and  _349
REMARK  138  A    between atoms: _352  and  _354
REMARK  139  A    between atoms: _354  and  _355
REMARK  140  A    between atoms: _354  and  _357
REMARK  141  A    between atoms: _357  and  _358
REMARK  142  A    between atoms: _363  and  _365
REMARK  143  A    between atoms: _365  and  _366
REMARK  144  A    between atoms: _365  and  _368
REMARK  145  A    between atoms: _368  and  _369
REMARK  146  A    between atoms: _369  and  _370
REMARK  147  A    between atoms: _370  and  _371
REMARK  148  A    between atoms: _371  and  _372
REMARK  149  A    between atoms: _376  and  _378
REMARK  150  A    between atoms: _378  and  _379
REMARK  151  A    between atoms: _378  and  _381
REMARK  152  A    between atoms: _381  and  _382
REMARK  153  A    between atoms: _385  and  _387
REMARK  154  A    between atoms: _387  and  _388
REMARK  155  A    between atoms: _387  and  _390
REMARK  156  A    between atoms: _390  and  _391
REMARK  157  A    between atoms: _396  and  _398
REMARK  158  A    between atoms: _398  and  _399
REMARK  159  A    between atoms: _401  and  _403
REMARK  160  A    between atoms: _403  and  _404
REMARK  161  A    between atoms: _403  and  _406
REMARK  162  A    between atoms: _406  and  _407
REMARK  163  A    between atoms: _407  and  _408
REMARK  164  A    between atoms: _408  and  _409
REMARK  165  A    between atoms: _409  and  _410
REMARK  166  A    between atoms: _414  and  _416
REMARK  167  A    between atoms: _416  and  _417
REMARK  168  A    between atoms: _416  and  _419
REMARK  169  A    between atoms: _419  and  _420
REMARK  170  A    between atoms: _420  and  _421
REMARK  171  A    between atoms: _421  and  _422
REMARK  172  A    between atoms: _431  and  _433
REMARK  173  A    between atoms: _433  and  _434
REMARK  174  A    between atoms: _433  and  _436
REMARK  175  A    between atoms: _436  and  _437
REMARK  176  A    between atoms: _442  and  _444
REMARK  177  A    between atoms: _444  and  _445
REMARK  178  A    between atoms: _444  and  _447
REMARK  179  A    between atoms: _447  and  _448
REMARK  180  A    between atoms: _453  and  _454
REMARK  181  A    between atoms: _456  and  _458
REMARK  182  A    between atoms: _458  and  _459
REMARK  183  A    between atoms: _458  and  _461
REMARK  184  A    between atoms: _461  and  _462
REMARK  185  A    between atoms: _462  and  _463
REMARK  186  A    between atoms: _463  and  _464
REMARK  187  A    between atoms: _464  and  _465
REMARK  188  A    between atoms: _469  and  _471
REMARK  189  A    between atoms: _471  and  _472
REMARK  190  A    between atoms: _471  and  _474
REMARK  191  A    between atoms: _474  and  _475
REMARK  192  A    between atoms: _477  and  _479
REMARK  193  A    between atoms: _479  and  _480
REMARK  194  A    between atoms: _479  and  _482
REMARK  195  A    between atoms: _482  and  _483
REMARK  196  A    between atoms: _486  and  _488
REMARK  197  A    between atoms: _488  and  _489
REMARK  198  A    between atoms: _488  and  _491
REMARK  199  A    between atoms: _491  and  _492
REMARK  200  A    between atoms: _492  and  _493
REMARK  201  A    between atoms: _496  and  _498
REMARK  202  A    between atoms: _498  and  _499
REMARK  203  A    between atoms: _502  and  _504
REMARK  204  A    between atoms: _504  and  _505
REMARK  205  A    between atoms: _504  and  _507
REMARK  206  A    between atoms: _507  and  _508
REMARK  207  A    between atoms: _510  and  _512
REMARK  208  A    between atoms: _512  and  _513
REMARK  209  A    between atoms: _515  and  _517
REMARK  210  A    between atoms: _517  and  _518
REMARK  211  A    between atoms: _517  and  _520
REMARK  212  A    between atoms: _520  and  _521
REMARK  213  A    between atoms: _524  and  _526
REMARK  214  A    between atoms: _526  and  _527
REMARK  215  A    between atoms: _529  and  _531
REMARK  216  A    between atoms: _531  and  _532
REMARK  217  A    between atoms: _531  and  _534
REMARK  218  A    between atoms: _534  and  _535
REMARK  219  A    between atoms: _540  and  _542
REMARK  220  A    between atoms: _542  and  _543
REMARK  221  A    between atoms: _542  and  _545
REMARK  222  A    between atoms: _545  and  _546
REMARK  223  A    between atoms: _546  and  _547
REMARK  224  A    between atoms: _554  and  _555
REMARK  225  A    between atoms: _555  and  _571
REMARK  226  A    between atoms: _556  and  _558
REMARK  227  A    between atoms: _558  and  _559
REMARK  228  A    between atoms: _559  and  _560
REMARK  229  A    between atoms: _564  and  _566
REMARK  230  A    between atoms: _566  and  _567
REMARK  231  A    between atoms: _566  and  _574
REMARK  232  A    between atoms: _567  and  _568
REMARK  233  A    between atoms: _568  and  _569
REMARK  234  A    between atoms: _569  and  _570
REMARK  235  A    between atoms: _570  and  _571
REMARK  236  A    between atoms: _576  and  _578
REMARK  237  A    between atoms: _578  and  _579
REMARK  238  A    between atoms: _578  and  _581
REMARK  239  A    between atoms: _581  and  _582
REMARK  240  A    between atoms: _585  and  _587
REMARK  241  A    between atoms: _587  and  _588
REMARK  242  A    between atoms: _590  and  _592
REMARK  243  A    between atoms: _592  and  _593
REMARK  244  A    between atoms: _596  and  _598
REMARK  245  A    between atoms: _598  and  _599
REMARK  246  A    between atoms: _598  and  _601
REMARK  247  A    between atoms: _601  and  _602
REMARK  248  A    between atoms: _607  and  _608
REMARK                            x       y       z     vdW  Elec       q    Type
REMARK                         _______ _______ _______ _____ _____    ______ ____
ROOT
ATOM      1  CG  TYR A   1      34.617   7.501  28.913  0.00  0.00    -0.020 A 
ATOM      2  CD2 TYR A   1      35.776   8.169  29.414  0.00  0.00    -0.001 A 
ATOM      3  CE2 TYR A   1      35.993   9.522  29.154  0.00  0.00    +0.036 A 
ATOM      4  CZ  TYR A   1      35.112  10.205  28.407  0.00  0.00    +0.134 A 
ATOM      5  CE1 TYR A   1      33.926   9.581  27.898  0.00  0.00    +0.036 A 
ATOM      6  CD1 TYR A   1      33.705   8.230  28.150  0.00  0.00    -0.001 A 
ENDROOT
BRANCH   4   7
ATOM      7  OH  TYR A   1      35.323  11.561  28.172  0.00  0.00    -0.506 OA
ATOM      8  HH  TYR A   1      34.590  11.915  27.609  0.00  0.00    +0.292 HD
ENDBRANCH   4   7
BRANCH   1   9
ATOM      9  CB  TYR A   1      34.360   6.031  29.233  0.00  0.00    +0.051 C 
BRANCH   9  10
ATOM     10  CA  TYR A   1      34.838   5.001  28.174  0.00  0.00    +0.137 C 
BRANCH  10  11
ATOM     11  N   TYR A   1      33.905   4.907  27.027  0.00  0.00    -0.239 NA
ATOM     12  H   TYR A   1      33.073   5.527  26.960  0.00  0.00    +0.142 HD
ENDBRANCH  10  11
BRANCH  10  13
ATOM     13  C   TYR A   1      34.968   3.661  28.855  0.00  0.00    +0.224 C 
ATOM     14  O   TYR A   1      36.039   3.232  29.151  0.00  0.00    -0.287 OA
ENDBRANCH  10  13
ENDBRANCH   9  10
ENDBRANCH   1   9
TORSDOF 5
REMARK  Name = ../refined-set-2016/4el5/4el5_pocket.pdb
REMARK  248 active torsions:
REMARK  status: ('A' for Active; 'I' for Inactive)
REMARK    1  A    between atoms: _1  and  _3
REMARK    2  A    between atoms: _3  and  _4
REMARK    3  A    between atoms: _3  and  _6
REMARK    4  A    between atoms: _6  and  _7
REMARK    5  A    between atoms: _12  and  _13
REMARK    6  A    between atoms: _15  and  _17
REMARK    7  A    between atoms: _17  and  _18
REMARK    8  A    between atoms: _17  and  _20
REMARK    9  A    between atoms: _20  and  _21
REMARK   10  A    between atoms: _21  and  _22
REMARK   11  A    between atoms: _25  and  _27
REMARK   12  A    between atoms: _27  and  _28
REMARK   13  A    between atoms: _27  and  _30
REMARK   14  A    between atoms: _30  and  _31
REMARK   15  A    between atoms: _36  and  _38
REMARK   16  A    between atoms: _38  and  _39
REMARK   17  A    between atoms: _41  and  _43
REMARK   18  A    between atoms: _43  and  _44
REMARK   19  A    between atoms: _46  and  _48
REMARK   20  A    between atoms: _48  and  _49
REMARK   21  A    between atoms: _48  and  _51
REMARK   22  A    between atoms: _51  and  _52
REMARK   23  A    between atoms: _55  and  _57
REMARK   24  A    between atoms: _57  and  _58
REMARK   25  A    between atoms: _60  and  _62
REMARK   26  A    between atoms: _62  and  _63
REMARK   27  A    between atoms: _62  and  _65
REMARK   28  A    between atoms: _65  and  _66
REMARK   29  A    between atoms: _66  and  _67
REMARK   30  A    between atoms: _67  and  _68
REMARK   31  A    between atoms: _77  and  _79
REMARK   32  A    between atoms: _79  and  _80
REMARK   33  A    between atoms: _79  and  _82
REMARK   34  A    between atoms: _82  and  _83
REMARK   35  A    between atoms: _86  and  _88
REMARK   36  A    between atoms: _88  and  _89
REMARK   37  A    between atoms: _92  and  _94
REMARK   38  A    between atoms: _94  and  _95
REMARK   39  A    between atoms: _94  and  _97
REMARK   40  A    between atoms: _97  and  _98
REMARK   41  A    between atoms: _104  and  _106
REMARK   42  A    between atoms: _106  and  _107
REMARK   43  A    between atoms: _106  and  _109
REMARK   44  A    between atoms: _109  and  _110
REMARK   45  A    between atoms: _115  and  _117
REMARK   46  A    between atoms: _117  and  _118
REMARK   47  A    between atoms: _117  and  _120
REMARK   48  A    between atoms: _120  and  _121
REMARK   49  A    between atoms: _124  and  _126
REMARK   50  A    between atoms: _126  and  _127
REMARK   51  A    between atoms: _126  and  _129
REMARK   52  A    between atoms: _129  and  _130
REMARK   53  A    between atoms: _135  and  _137
REMARK   54  A    between atoms: _137  and  _138
REMARK   55  A    between atoms: _137  and  _140
REMARK   56  A    between atoms: _140  and  _141
REMARK   57  A    between atoms: _147  and  _149
REMARK   58  A    between atoms: _149  and  _150
REMARK   59  A    between atoms: _149  and  _152
REMARK   60  A    between atoms: _152  and  _153
REMARK   61  A    between atoms: _159  and  _161
REMARK   62  A    between atoms: _161  and  _162
REMARK   63  A    between atoms: _161  and  _164
REMARK   64  A    between atoms: _164  and  _165
REMARK   65  A    between atoms: _165  and  _166
REMARK   66  A    between atoms: _166  and  _167
REMARK   67  A    between atoms: _176  and  _178
REMARK   68  A    between atoms: _178  and  _179
REMARK   69  A    between atoms: _178  and  _181
REMARK   70  A    between atoms: _181  and  _182
REMARK   71  A    between atoms: _187  and  _189
REMARK   72  A    between atoms: _189  and  _190
REMARK   73  A    between atoms: _189  and  _192
REMARK   74  A    between atoms: _192  and  _193
REMARK   75  A    between atoms: _196  and  _198
REMARK   76  A    between atoms: _198  and  _199
REMARK   77  A    between atoms: _198  and  _201
REMARK   78  A    between atoms: _201  and  _202
REMARK   79  A    between atoms: _205  and  _207
REMARK   80  A    between atoms: _207  and  _208
REMARK   81  A    between atoms: _207  and  _210
REMARK   82  A    between atoms: _210  and  _211
REMARK   83  A    between atoms: _216  and  _218
REMARK   84  A    between atoms: _218  and  _219
REMARK   85  A    between atoms: _218  and  _221
REMARK   86  A    between atoms: _221  and  _222
REMARK   87  A    between atoms: _227  and  _228
REMARK   88  A    between atoms: _230  and  _232
REMARK   89  A    between atoms: _232  and  _233
REMARK   90  A    between atoms: _232  and  _235
REMARK   91  A    between atoms: _235  and  _236
REMARK   92  A    between atoms: _239  and  _241
REMARK   93  A    between atoms: _241  and  _242
REMARK   94  A    between atoms: _241  and  _244
REMARK   95  A    between atoms: _244  and  _245
REMARK   96  A    between atoms: _250  and  _252
REMARK   97  A    between atoms: _252  and  _253
REMARK   98  A    between atoms: _252  and  _255
REMARK   99  A    between atoms: _255  and  _256
REMARK  100  A    between atoms: _261  and  _263
REMARK  101  A    between atoms: _263  and  _264
REMARK  102  A    between atoms: _263  and  _266
REMARK  103  A    between atoms: _266  and  _267
REMARK  104  A    between atoms: _270  and  _272
REMARK  105  A    between atoms: _272  and  _273
REMARK  106  A    between atoms: _272  and  _275
REMARK  107  A    between atoms: _278  and  _280
REMARK  108  A    between atoms: _280  and  _281
REMARK  109  A    between atoms: _280  and  _283
REMARK  110  A    between atoms: _283  and  _284
REMARK  111  A    between atoms: _287  and  _289
REMARK  112  A    between atoms: _289  and  _290
REMARK  113  A    between atoms: _289  and  _292
REMARK  114  A    between atoms: _292  and  _293
REMARK  115  A    between atoms: _293  and  _294
REMARK  116  A    between atoms: _297  and  _299
REMARK  117  A    between atoms: _299  and  _300
REMARK  118  A    between atoms: _303  and  _305
REMARK  119  A    between atoms: _305  and  _306
REMARK  120  A    between atoms: _305  and  _308
REMARK  121  A    between atoms: _308  and  _309
REMARK  122  A    between atoms: _312  and  _314
REMARK  123  A    between atoms: _314  and  _315
REMARK  124  A    between atoms: _314  and  _317
REMARK  125  A    between atoms: _317  and  _318
REMARK  126  A    between atoms: _318  and  _319
REMARK  127  A    between atoms: _322  and  _324
REMARK  128  A    between atoms: _324  and  _325
REMARK  129  A    between atoms: _324  and  _327
REMARK  130  A    between atoms: _327  and  _328
REMARK  131  A    between atoms: _333  and  _335
REMARK  132  A    between atoms: _335  and  _336
REMARK  133  A    between atoms: _338  and  _340
REMARK  134  A    between atoms: _340  and  _341
REMARK  135  A    between atoms: _340  and  _343
REMARK  136  A    between atoms: _346  and  _348
REMARK  137  A    between atoms: _348  and  _349
REMARK  138  A    between atoms: _352  and  _354
REMARK  139  A    between atoms: _354  and  _355
REMARK  140  A    between atoms: _354  and  _357
REMARK  141  A    between atoms: _357  and  _358
REMARK  142  A    between atoms: _363  and  _365
REMARK  143  A    between atoms: _365  and  _366
REMARK  144  A    between atoms: _365  and  _368
REMARK  145  A    between atoms: _368  and  _369
REMARK  146  A    between atoms: _369  and  _370
REMARK  147  A    between atoms: _370  and  _371
REMARK  148  A    between atoms: _371  and  _372
REMARK  149  A    between atoms: _376  and  _378
REMARK  150  A    between atoms: _378  and  _379
REMARK  151  A    between atoms: _378  and  _381
REMARK  152  A    between atoms: _381  and  _382
REMARK  153  A    between atoms: _385  and  _387
REMARK  154  A    between atoms: _387  and  _388
REMARK  155  A    between atoms: _387  and  _390
REMARK  156  A    between atoms: _390  and  _391
REMARK  157  A    between atoms: _396  and  _398
REMARK  158  A    between atoms: _398  and  _399
REMARK  159  A    between atoms: _401  and  _403
REMARK  160  A    between atoms: _403  and  _404
REMARK  161  A    between atoms: _403  and  _406
REMARK  162  A    between atoms: _406  and  _407
REMARK  163  A    between atoms: _407  and  _408
REMARK  164  A    between atoms: _408  and  _409
REMARK  165  A    between atoms: _409  and  _410
REMARK  166  A    between atoms: _414  and  _416
REMARK  167  A    between atoms: _416  and  _417
REMARK  168  A    between atoms: _416  and  _419
REMARK  169  A    between atoms: _419  and  _420
REMARK  170  A    between atoms: _420  and  _421
REMARK  171  A    between atoms: _421  and  _422
REMARK  172  A    between atoms: _431  and  _433
REMARK  173  A    between atoms: _433  and  _434
REMARK  174  A    between atoms: _433  and  _436
REMARK  175  A    between atoms: _436  and  _437
REMARK  176  A    between atoms: _442  and  _444
REMARK  177  A    between atoms: _444  and  _445
REMARK  178  A    between atoms: _444  and  _447
REMARK  179  A    between atoms: _447  and  _448
REMARK  180  A    between atoms: _453  and  _454
REMARK  181  A    between atoms: _456  and  _458
REMARK  182  A    between atoms: _458  and  _459
REMARK  183  A    between atoms: _458  and  _461
REMARK  184  A    between atoms: _461  and  _462
REMARK  185  A    between atoms: _462  and  _463
REMARK  186  A    between atoms: _463  and  _464
REMARK  187  A    between atoms: _464  and  _465
REMARK  188  A    between atoms: _469  and  _471
REMARK  189  A    between atoms: _471  and  _472
REMARK  190  A    between atoms: _471  and  _474
REMARK  191  A    between atoms: _474  and  _475
REMARK  192  A    between atoms: _477  and  _479
REMARK  193  A    between atoms: _479  and  _480
REMARK  194  A    between atoms: _479  and  _482
REMARK  195  A    between atoms: _482  and  _483
REMARK  196  A    between atoms: _486  and  _488
REMARK  197  A    between atoms: _488  and  _489
REMARK  198  A    between atoms: _488  and  _491
REMARK  199  A    between atoms: _491  and  _492
REMARK  200  A    between atoms: _492  and  _493
REMARK  201  A    between atoms: _496  and  _498
REMARK  202  A    between atoms: _498  and  _499
REMARK  203  A    between atoms: _502  and  _504
REMARK  204  A    between atoms: _504  and  _505
REMARK  205  A    between atoms: _504  and  _507
REMARK  206  A    between atoms: _507  and  _508
REMARK  207  A    between atoms: _510  and  _512
REMARK  208  A    between atoms: _512  and  _513
REMARK  209  A    between atoms: _515  and  _517
REMARK  210  A    between atoms: _517  and  _518
REMARK  211  A    between atoms: _517  and  _520
REMARK  212  A    between atoms: _520  and  _521
REMARK  213  A    between atoms: _524  and  _526
REMARK  214  A    between atoms: _526  and  _527
REMARK  215  A    between atoms: _529  and  _531
REMARK  216  A    between atoms: _531  and  _532
REMARK  217  A    between atoms: _531  and  _534
REMARK  218  A    between atoms: _534  and  _535
REMARK  219  A    between atoms: _540  and  _542
REMARK  220  A    between atoms: _542  and  _543
REMARK  221  A    between atoms: _542  and  _545
REMARK  222  A    between atoms: _545  and  _546
REMARK  223  A    between atoms: _546  and  _547
REMARK  224  A    between atoms: _554  and  _555
REMARK  225  A    between atoms: _555  and  _571
REMARK  226  A    between atoms: _556  and  _558
REMARK  227  A    between atoms: _558  and  _559
REMARK  228  A    between atoms: _559  and  _560
REMARK  229  A    between atoms: _564  and  _566
REMARK  230  A    between atoms: _566  and  _567
REMARK  231  A    between atoms: _566  and  _574
REMARK  232  A    between atoms: _567  and  _568
REMARK  233  A    between atoms: _568  and  _569
REMARK  234  A    between atoms: _569  and  _570
REMARK  235  A    between atoms: _570  and  _571
REMARK  236  A    between atoms: _576  and  _578
REMARK  237  A    between atoms: _578  and  _579
REMARK  238  A    between atoms: _578  and  _581
REMARK  239  A    between atoms: _581  and  _582
REMARK  240  A    between atoms: _585  and  _587
REMARK  241  A    between atoms: _587  and  _588
REMARK  242  A    between atoms: _590  and  _592
REMARK  243  A    between atoms: _592  and  _593
REMARK  244  A    between atoms: _596  and  _598
REMARK  245  A    between atoms: _598  and  _599
REMARK  246  A    between atoms: _598  and  _601
REMARK  247  A    between atoms: _601  and  _602
REMARK  248  A    between atoms: _607  and  _608
REMARK                            x       y       z     vdW  Elec       q    Type
REMARK                         _______ _______ _______ _____ _____    ______ ____
ROOT
ATOM      1  O   HOH     1      33.651  12.752  26.363  0.00  0.00    +0.000 OA
ENDROOT
TORSDOF 0
REMARK  Name = ../refined-set-2016/4el5/4el5_pocket.pdb
REMARK  248 active torsions:
REMARK  status: ('A' for Active; 'I' for Inactive)
REMARK    1  A    between atoms: _1  and  _3
REMARK    2  A    between atoms: _3  and  _4
REMARK    3  A    between atoms: _3  and  _6
REMARK    4  A    between atoms: _6  and  _7
REMARK    5  A    between atoms: _12  and  _13
REMARK    6  A    between atoms: _15  and  _17
REMARK    7  A    between atoms: _17  and  _18
REMARK    8  A    between atoms: _17  and  _20
REMARK    9  A    between atoms: _20  and  _21
REMARK   10  A    between atoms: _21  and  _22
REMARK   11  A    between atoms: _25  and  _27
REMARK   12  A    between atoms: _27  and  _28
REMARK   13  A    between atoms: _27  and  _30
REMARK   14  A    between atoms: _30  and  _31
REMARK   15  A    between atoms: _36  and  _38
REMARK   16  A    between atoms: _38  and  _39
REMARK   17  A    between atoms: _41  and  _43
REMARK   18  A    between atoms: _43  and  _44
REMARK   19  A    between atoms: _46  and  _48
REMARK   20  A    between atoms: _48  and  _49
REMARK   21  A    between atoms: _48  and  _51
REMARK   22  A    between atoms: _51  and  _52
REMARK   23  A    between atoms: _55  and  _57
REMARK   24  A    between atoms: _57  and  _58
REMARK   25  A    between atoms: _60  and  _62
REMARK   26  A    between atoms: _62  and  _63
REMARK   27  A    between atoms: _62  and  _65
REMARK   28  A    between atoms: _65  and  _66
REMARK   29  A    between atoms: _66  and  _67
REMARK   30  A    between atoms: _67  and  _68
REMARK   31  A    between atoms: _77  and  _79
REMARK   32  A    between atoms: _79  and  _80
REMARK   33  A    between atoms: _79  and  _82
REMARK   34  A    between atoms: _82  and  _83
REMARK   35  A    between atoms: _86  and  _88
REMARK   36  A    between atoms: _88  and  _89
REMARK   37  A    between atoms: _92  and  _94
REMARK   38  A    between atoms: _94  and  _95
REMARK   39  A    between atoms: _94  and  _97
REMARK   40  A    between atoms: _97  and  _98
REMARK   41  A    between atoms: _104  and  _106
REMARK   42  A    between atoms: _106  and  _107
REMARK   43  A    between atoms: _106  and  _109
REMARK   44  A    between atoms: _109  and  _110
REMARK   45  A    between atoms: _115  and  _117
REMARK   46  A    between atoms: _117  and  _118
REMARK   47  A    between atoms: _117  and  _120
REMARK   48  A    between atoms: _120  and  _121
REMARK   49  A    between atoms: _124  and  _126
REMARK   50  A    between atoms: _126  and  _127
REMARK   51  A    between atoms: _126  and  _129
REMARK   52  A    between atoms: _129  and  _130
REMARK   53  A    between atoms: _135  and  _137
REMARK   54  A    between atoms: _137  and  _138
REMARK   55  A    between atoms: _137  and  _140
REMARK   56  A    between atoms: _140  and  _141
REMARK   57  A    between atoms: _147  and  _149
REMARK   58  A    between atoms: _149  and  _150
REMARK   59  A    between atoms: _149  and  _152
REMARK   60  A    between atoms: _152  and  _153
REMARK   61  A    between atoms: _159  and  _161
REMARK   62  A    between atoms: _161  and  _162
REMARK   63  A    between atoms: _161  and  _164
REMARK   64  A    between atoms: _164  and  _165
REMARK   65  A    between atoms: _165  and  _166
REMARK   66  A    between atoms: _166  and  _167
REMARK   67  A    between atoms: _176  and  _178
REMARK   68  A    between atoms: _178  and  _179
REMARK   69  A    between atoms: _178  and  _181
REMARK   70  A    between atoms: _181  and  _182
REMARK   71  A    between atoms: _187  and  _189
REMARK   72  A    between atoms: _189  and  _190
REMARK   73  A    between atoms: _189  and  _192
REMARK   74  A    between atoms: _192  and  _193
REMARK   75  A    between atoms: _196  and  _198
REMARK   76  A    between atoms: _198  and  _199
REMARK   77  A    between atoms: _198  and  _201
REMARK   78  A    between atoms: _201  and  _202
REMARK   79  A    between atoms: _205  and  _207
REMARK   80  A    between atoms: _207  and  _208
REMARK   81  A    between atoms: _207  and  _210
REMARK   82  A    between atoms: _210  and  _211
REMARK   83  A    between atoms: _216  and  _218
REMARK   84  A    between atoms: _218  and  _219
REMARK   85  A    between atoms: _218  and  _221
REMARK   86  A    between atoms: _221  and  _222
REMARK   87  A    between atoms: _227  and  _228
REMARK   88  A    between atoms: _230  and  _232
REMARK   89  A    between atoms: _232  and  _233
REMARK   90  A    between atoms: _232  and  _235
REMARK   91  A    between atoms: _235  and  _236
REMARK   92  A    between atoms: _239  and  _241
REMARK   93  A    between atoms: _241  and  _242
REMARK   94  A    between atoms: _241  and  _244
REMARK   95  A    between atoms: _244  and  _245
REMARK   96  A    between atoms: _250  and  _252
REMARK   97  A    between atoms: _252  and  _253
REMARK   98  A    between atoms: _252  and  _255
REMARK   99  A    between atoms: _255  and  _256
REMARK  100  A    between atoms: _261  and  _263
REMARK  101  A    between atoms: _263  and  _264
REMARK  102  A    between atoms: _263  and  _266
REMARK  103  A    between atoms: _266  and  _267
REMARK  104  A    between atoms: _270  and  _272
REMARK  105  A    between atoms: _272  and  _273
REMARK  106  A    between atoms: _272  and  _275
REMARK  107  A    between atoms: _278  and  _280
REMARK  108  A    between atoms: _280  and  _281
REMARK  109  A    between atoms: _280  and  _283
REMARK  110  A    between atoms: _283  and  _284
REMARK  111  A    between atoms: _287  and  _289
REMARK  112  A    between atoms: _289  and  _290
REMARK  113  A    between atoms: _289  and  _292
REMARK  114  A    between atoms: _292  and  _293
REMARK  115  A    between atoms: _293  and  _294
REMARK  116  A    between atoms: _297  and  _299
REMARK  117  A    between atoms: _299  and  _300
REMARK  118  A    between atoms: _303  and  _305
REMARK  119  A    between atoms: _305  and  _306
REMARK  120  A    between atoms: _305  and  _308
REMARK  121  A    between atoms: _308  and  _309
REMARK  122  A    between atoms: _312  and  _314
REMARK  123  A    between atoms: _314  and  _315
REMARK  124  A    between atoms: _314  and  _317
REMARK  125  A    between atoms: _317  and  _318
REMARK  126  A    between atoms: _318  and  _319
REMARK  127  A    between atoms: _322  and  _324
REMARK  128  A    between atoms: _324  and  _325
REMARK  129  A    between atoms: _324  and  _327
REMARK  130  A    between atoms: _327  and  _328
REMARK  131  A    between atoms: _333  and  _335
REMARK  132  A    between atoms: _335  and  _336
REMARK  133  A    between atoms: _338  and  _340
REMARK  134  A    between atoms: _340  and  _341
REMARK  135  A    between atoms: _340  and  _343
REMARK  136  A    between atoms: _346  and  _348
REMARK  137  A    between atoms: _348  and  _349
REMARK  138  A    between atoms: _352  and  _354
REMARK  139  A    between atoms: _354  and  _355
REMARK  140  A    between atoms: _354  and  _357
REMARK  141  A    between atoms: _357  and  _358
REMARK  142  A    between atoms: _363  and  _365
REMARK  143  A    between atoms: _365  and  _366
REMARK  144  A    between atoms: _365  and  _368
REMARK  145  A    between atoms: _368  and  _369
REMARK  146  A    between atoms: _369  and  _370
REMARK  147  A    between atoms: _370  and  _371
REMARK  148  A    between atoms: _371  and  _372
REMARK  149  A    between atoms: _376  and  _378
REMARK  150  A    between atoms: _378  and  _379
REMARK  151  A    between atoms: _378  and  _381
REMARK  152  A    between atoms: _381  and  _382
REMARK  153  A    between atoms: _385  and  _387
REMARK  154  A    between atoms: _387  and  _388
REMARK  155  A    between atoms: _387  and  _390
REMARK  156  A    between atoms: _390  and  _391
REMARK  157  A    between atoms: _396  and  _398
REMARK  158  A    between atoms: _398  and  _399
REMARK  159  A    between atoms: _401  and  _403
REMARK  160  A    between atoms: _403  and  _404
REMARK  161  A    between atoms: _403  and  _406
REMARK  162  A    between atoms: _406  and  _407
REMARK  163  A    between atoms: _407  and  _408
REMARK  164  A    between atoms: _408  and  _409
REMARK  165  A    between atoms: _409  and  _410
REMARK  166  A    between atoms: _414  and  _416
REMARK  167  A    between atoms: _416  and  _417
REMARK  168  A    between atoms: _416  and  _419
REMARK  169  A    between atoms: _419  and  _420
REMARK  170  A    between atoms: _420  and  _421
REMARK  171  A    between atoms: _421  and  _422
REMARK  172  A    between atoms: _431  and  _433
REMARK  173  A    between atoms: _433  and  _434
REMARK  174  A    between atoms: _433  and  _436
REMARK  175  A    between atoms: _436  and  _437
REMARK  176  A    between atoms: _442  and  _444
REMARK  177  A    between atoms: _444  and  _445
REMARK  178  A    between atoms: _444  and  _447
REMARK  179  A    between atoms: _447  and  _448
REMARK  180  A    between atoms: _453  and  _454
REMARK  181  A    between atoms: _456  and  _458
REMARK  182  A    between atoms: _458  and  _459
REMARK  183  A    between atoms: _458  and  _461
REMARK  184  A    between atoms: _461  and  _462
REMARK  185  A    between atoms: _462  and  _463
REMARK  186  A    between atoms: _463  and  _464
REMARK  187  A    between atoms: _464  and  _465
REMARK  188  A    between atoms: _469  and  _471
REMARK  189  A    between atoms: _471  and  _472
REMARK  190  A    between atoms: _471  and  _474
REMARK  191  A    between atoms: _474  and  _475
REMARK  192  A    between atoms: _477  and  _479
REMARK  193  A    between atoms: _479  and  _480
REMARK  194  A    between atoms: _479  and  _482
REMARK  195  A    between atoms: _482  and  _483
REMARK  196  A    between atoms: _486  and  _488
REMARK  197  A    between atoms: _488  and  _489
REMARK  198  A    between atoms: _488  and  _491
REMARK  199  A    between atoms: _491  and  _492
REMARK  200  A    between atoms: _492  and  _493
REMARK  201  A    between atoms: _496  and  _498
REMARK  202  A    between atoms: _498  and  _499
REMARK  203  A    between atoms: _502  and  _504
REMARK  204  A    between atoms: _504  and  _505
REMARK  205  A    between atoms: _504  and  _507
REMARK  206  A    between atoms: _507  and  _508
REMARK  207  A    between atoms: _510  and  _512
REMARK  208  A    between atoms: _512  and  _513
REMARK  209  A    between atoms: _515  and  _517
REMARK  210  A    between atoms: _517  and  _518
REMARK  211  A    between atoms: _517  and  _520
REMARK  212  A    between atoms: _520  and  _521
REMARK  213  A    between atoms: _524  and  _526
REMARK  214  A    between atoms: _526  and  _527
REMARK  215  A    between atoms: _529  and  _531
REMARK  216  A    between atoms: _531  and  _532
REMARK  217  A    between atoms: _531  and  _534
REMARK  218  A    between atoms: _534  and  _535
REMARK  219  A    between atoms: _540  and  _542
REMARK  220  A    between atoms: _542  and  _543
REMARK  221  A    between atoms: _542  and  _545
REMARK  222  A    between atoms: _545  and  _546
REMARK  223  A    between atoms: _546  and  _547
REMARK  224  A    between atoms: _554  and  _555
REMARK  225  A    between atoms: _555  and  _571
REMARK  226  A    between atoms: _556  and  _558
REMARK  227  A    between atoms: _558  and  _559
REMARK  228  A    between atoms: _559  and  _560
REMARK  229  A    between atoms: _564  and  _566
REMARK  230  A    between atoms: _566  and  _567
REMARK  231  A    between atoms: _566  and  _574
REMARK  232  A    between atoms: _567  and  _568
REMARK  233  A    between atoms: _568  and  _569
REMARK  234  A    between atoms: _569  and  _570
REMARK  235  A    between atoms: _570  and  _571
REMARK  236  A    between atoms: _576  and  _578
REMARK  237  A    between atoms: _578  and  _579
REMARK  238  A    between atoms: _578  and  _581
REMARK  239  A    between atoms: _581  and  _582
REMARK  240  A    between atoms: _585  and  _587
REMARK  241  A    between atoms: _587  and  _588
REMARK  242  A    between atoms: _590  and  _592
REMARK  243  A    between atoms: _592  and  _593
REMARK  244  A    between atoms: _596  and  _598
REMARK  245  A    between atoms: _598  and  _599
REMARK  246  A    between atoms: _598  and  _601
REMARK  247  A    between atoms: _601  and  _602
REMARK  248  A    between atoms: _607  and  _608
REMARK                            x       y       z     vdW  Elec       q    Type
REMARK                         _______ _______ _______ _____ _____    ______ ____
ROOT
ATOM      1  O   HOH     1      29.145  27.333  20.622  0.00  0.00    +0.000 OA
ENDROOT
TORSDOF 0
REMARK  Name = ../refined-set-2016/4el5/4el5_pocket.pdb
REMARK  248 active torsions:
REMARK  status: ('A' for Active; 'I' for Inactive)
REMARK    1  A    between atoms: _1  and  _3
REMARK    2  A    between atoms: _3  and  _4
REMARK    3  A    between atoms: _3  and  _6
REMARK    4  A    between atoms: _6  and  _7
REMARK    5  A    between atoms: _12  and  _13
REMARK    6  A    between atoms: _15  and  _17
REMARK    7  A    between atoms: _17  and  _18
REMARK    8  A    between atoms: _17  and  _20
REMARK    9  A    between atoms: _20  and  _21
REMARK   10  A    between atoms: _21  and  _22
REMARK   11  A    between atoms: _25  and  _27
REMARK   12  A    between atoms: _27  and  _28
REMARK   13  A    between atoms: _27  and  _30
REMARK   14  A    between atoms: _30  and  _31
REMARK   15  A    between atoms: _36  and  _38
REMARK   16  A    between atoms: _38  and  _39
REMARK   17  A    between atoms: _41  and  _43
REMARK   18  A    between atoms: _43  and  _44
REMARK   19  A    between atoms: _46  and  _48
REMARK   20  A    between atoms: _48  and  _49
REMARK   21  A    between atoms: _48  and  _51
REMARK   22  A    between atoms: _51  and  _52
REMARK   23  A    between atoms: _55  and  _57
REMARK   24  A    between atoms: _57  and  _58
REMARK   25  A    between atoms: _60  and  _62
REMARK   26  A    between atoms: _62  and  _63
REMARK   27  A    between atoms: _62  and  _65
REMARK   28  A    between atoms: _65  and  _66
REMARK   29  A    between atoms: _66  and  _67
REMARK   30  A    between atoms: _67  and  _68
REMARK   31  A    between atoms: _77  and  _79
REMARK   32  A    between atoms: _79  and  _80
REMARK   33  A    between atoms: _79  and  _82
REMARK   34  A    between atoms: _82  and  _83
REMARK   35  A    between atoms: _86  and  _88
REMARK   36  A    between atoms: _88  and  _89
REMARK   37  A    between atoms: _92  and  _94
REMARK   38  A    between atoms: _94  and  _95
REMARK   39  A    between atoms: _94  and  _97
REMARK   40  A    between atoms: _97  and  _98
REMARK   41  A    between atoms: _104  and  _106
REMARK   42  A    between atoms: _106  and  _107
REMARK   43  A    between atoms: _106  and  _109
REMARK   44  A    between atoms: _109  and  _110
REMARK   45  A    between atoms: _115  and  _117
REMARK   46  A    between atoms: _117  and  _118
REMARK   47  A    between atoms: _117  and  _120
REMARK   48  A    between atoms: _120  and  _121
REMARK   49  A    between atoms: _124  and  _126
REMARK   50  A    between atoms: _126  and  _127
REMARK   51  A    between atoms: _126  and  _129
REMARK   52  A    between atoms: _129  and  _130
REMARK   53  A    between atoms: _135  and  _137
REMARK   54  A    between atoms: _137  and  _138
REMARK   55  A    between atoms: _137  and  _140
REMARK   56  A    between atoms: _140  and  _141
REMARK   57  A    between atoms: _147  and  _149
REMARK   58  A    between atoms: _149  and  _150
REMARK   59  A    between atoms: _149  and  _152
REMARK   60  A    between atoms: _152  and  _153
REMARK   61  A    between atoms: _159  and  _161
REMARK   62  A    between atoms: _161  and  _162
REMARK   63  A    between atoms: _161  and  _164
REMARK   64  A    between atoms: _164  and  _165
REMARK   65  A    between atoms: _165  and  _166
REMARK   66  A    between atoms: _166  and  _167
REMARK   67  A    between atoms: _176  and  _178
REMARK   68  A    between atoms: _178  and  _179
REMARK   69  A    between atoms: _178  and  _181
REMARK   70  A    between atoms: _181  and  _182
REMARK   71  A    between atoms: _187  and  _189
REMARK   72  A    between atoms: _189  and  _190
REMARK   73  A    between atoms: _189  and  _192
REMARK   74  A    between atoms: _192  and  _193
REMARK   75  A    between atoms: _196  and  _198
REMARK   76  A    between atoms: _198  and  _199
REMARK   77  A    between atoms: _198  and  _201
REMARK   78  A    between atoms: _201  and  _202
REMARK   79  A    between atoms: _205  and  _207
REMARK   80  A    between atoms: _207  and  _208
REMARK   81  A    between atoms: _207  and  _210
REMARK   82  A    between atoms: _210  and  _211
REMARK   83  A    between atoms: _216  and  _218
REMARK   84  A    between atoms: _218  and  _219
REMARK   85  A    between atoms: _218  and  _221
REMARK   86  A    between atoms: _221  and  _222
REMARK   87  A    between atoms: _227  and  _228
REMARK   88  A    between atoms: _230  and  _232
REMARK   89  A    between atoms: _232  and  _233
REMARK   90  A    between atoms: _232  and  _235
REMARK   91  A    between atoms: _235  and  _236
REMARK   92  A    between atoms: _239  and  _241
REMARK   93  A    between atoms: _241  and  _242
REMARK   94  A    between atoms: _241  and  _244
REMARK   95  A    between atoms: _244  and  _245
REMARK   96  A    between atoms: _250  and  _252
REMARK   97  A    between atoms: _252  and  _253
REMARK   98  A    between atoms: _252  and  _255
REMARK   99  A    between atoms: _255  and  _256
REMARK  100  A    between atoms: _261  and  _263
REMARK  101  A    between atoms: _263  and  _264
REMARK  102  A    between atoms: _263  and  _266
REMARK  103  A    between atoms: _266  and  _267
REMARK  104  A    between atoms: _270  and  _272
REMARK  105  A    between atoms: _272  and  _273
REMARK  106  A    between atoms: _272  and  _275
REMARK  107  A    between atoms: _278  and  _280
REMARK  108  A    between atoms: _280  and  _281
REMARK  109  A    between atoms: _280  and  _283
REMARK  110  A    between atoms: _283  and  _284
REMARK  111  A    between atoms: _287  and  _289
REMARK  112  A    between atoms: _289  and  _290
REMARK  113  A    between atoms: _289  and  _292
REMARK  114  A    between atoms: _292  and  _293
REMARK  115  A    between atoms: _293  and  _294
REMARK  116  A    between atoms: _297  and  _299
REMARK  117  A    between atoms: _299  and  _300
REMARK  118  A    between atoms: _303  and  _305
REMARK  119  A    between atoms: _305  and  _306
REMARK  120  A    between atoms: _305  and  _308
REMARK  121  A    between atoms: _308  and  _309
REMARK  122  A    between atoms: _312  and  _314
REMARK  123  A    between atoms: _314  and  _315
REMARK  124  A    between atoms: _314  and  _317
REMARK  125  A    between atoms: _317  and  _318
REMARK  126  A    between atoms: _318  and  _319
REMARK  127  A    between atoms: _322  and  _324
REMARK  128  A    between atoms: _324  and  _325
REMARK  129  A    between atoms: _324  and  _327
REMARK  130  A    between atoms: _327  and  _328
REMARK  131  A    between atoms: _333  and  _335
REMARK  132  A    between atoms: _335  and  _336
REMARK  133  A    between atoms: _338  and  _340
REMARK  134  A    between atoms: _340  and  _341
REMARK  135  A    between atoms: _340  and  _343
REMARK  136  A    between atoms: _346  and  _348
REMARK  137  A    between atoms: _348  and  _349
REMARK  138  A    between atoms: _352  and  _354
REMARK  139  A    between atoms: _354  and  _355
REMARK  140  A    between atoms: _354  and  _357
REMARK  141  A    between atoms: _357  and  _358
REMARK  142  A    between atoms: _363  and  _365
REMARK  143  A    between atoms: _365  and  _366
REMARK  144  A    between atoms: _365  and  _368
REMARK  145  A    between atoms: _368  and  _369
REMARK  146  A    between atoms: _369  and  _370
REMARK  147  A    between atoms: _370  and  _371
REMARK  148  A    between atoms: _371  and  _372
REMARK  149  A    between atoms: _376  and  _378
REMARK  150  A    between atoms: _378  and  _379
REMARK  151  A    between atoms: _378  and  _381
REMARK  152  A    between atoms: _381  and  _382
REMARK  153  A    between atoms: _385  and  _387
REMARK  154  A    between atoms: _387  and  _388
REMARK  155  A    between atoms: _387  and  _390
REMARK  156  A    between atoms: _390  and  _391
REMARK  157  A    between atoms: _396  and  _398
REMARK  158  A    between atoms: _398  and  _399
REMARK  159  A    between atoms: _401  and  _403
REMARK  160  A    between atoms: _403  and  _404
REMARK  161  A    between atoms: _403  and  _406
REMARK  162  A    between atoms: _406  and  _407
REMARK  163  A    between atoms: _407  and  _408
REMARK  164  A    between atoms: _408  and  _409
REMARK  165  A    between atoms: _409  and  _410
REMARK  166  A    between atoms: _414  and  _416
REMARK  167  A    between atoms: _416  and  _417
REMARK  168  A    between atoms: _416  and  _419
REMARK  169  A    between atoms: _419  and  _420
REMARK  170  A    between atoms: _420  and  _421
REMARK  171  A    between atoms: _421  and  _422
REMARK  172  A    between atoms: _431  and  _433
REMARK  173  A    between atoms: _433  and  _434
REMARK  174  A    between atoms: _433  and  _436
REMARK  175  A    between atoms: _436  and  _437
REMARK  176  A    between atoms: _442  and  _444
REMARK  177  A    between atoms: _444  and  _445
REMARK  178  A    between atoms: _444  and  _447
REMARK  179  A    between atoms: _447  and  _448
REMARK  180  A    between atoms: _453  and  _454
REMARK  181  A    between atoms: _456  and  _458
REMARK  182  A    between atoms: _458  and  _459
REMARK  183  A    between atoms: _458  and  _461
REMARK  184  A    between atoms: _461  and  _462
REMARK  185  A    between atoms: _462  and  _463
REMARK  186  A    between atoms: _463  and  _464
REMARK  187  A    between atoms: _464  and  _465
REMARK  188  A    between atoms: _469  and  _471
REMARK  189  A    between atoms: _471  and  _472
REMARK  190  A    between atoms: _471  and  _474
REMARK  191  A    between atoms: _474  and  _475
REMARK  192  A    between atoms: _477  and  _479
REMARK  193  A    between atoms: _479  and  _480
REMARK  194  A    between atoms: _479  and  _482
REMARK  195  A    between atoms: _482  and  _483
REMARK  196  A    between atoms: _486  and  _488
REMARK  197  A    between atoms: _488  and  _489
REMARK  198  A    between atoms: _488  and  _491
REMARK  199  A    between atoms: _491  and  _492
REMARK  200  A    between atoms: _492  and  _493
REMARK  201  A    between atoms: _496  and  _498
REMARK  202  A    between atoms: _498  and  _499
REMARK  203  A    between atoms: _502  and  _504
REMARK  204  A    between atoms: _504  and  _505
REMARK  205  A    between atoms: _504  and  _507
REMARK  206  A    between atoms: _507  and  _508
REMARK  207  A    between atoms: _510  and  _512
REMARK  208  A    between atoms: _512  and  _513
REMARK  209  A    between atoms: _515  and  _517
REMARK  210  A    between atoms: _517  and  _518
REMARK  211  A    between atoms: _517  and  _520
REMARK  212  A    between atoms: _520  and  _521
REMARK  213  A    between atoms: _524  and  _526
REMARK  214  A    between atoms: _526  and  _527
REMARK  215  A    between atoms: _529  and  _531
REMARK  216  A    between atoms: _531  and  _532
REMARK  217  A    between atoms: _531  and  _534
REMARK  218  A    between atoms: _534  and  _535
REMARK  219  A    between atoms: _540  and  _542
REMARK  220  A    between atoms: _542  and  _543
REMARK  221  A    between atoms: _542  and  _545
REMARK  222  A    between atoms: _545  and  _546
REMARK  223  A    between atoms: _546  and  _547
REMARK  224  A    between atoms: _554  and  _555
REMARK  225  A    between atoms: _555  and  _571
REMARK  226  A    between atoms: _556  and  _558
REMARK  227  A    between atoms: _558  and  _559
REMARK  228  A    between atoms: _559  and  _560
REMARK  229  A    between atoms: _564  and  _566
REMARK  230  A    between atoms: _566  and  _567
REMARK  231  A    between atoms: _566  and  _574
REMARK  232  A    between atoms: _567  and  _568
REMARK  233  A    between atoms: _568  and  _569
REMARK  234  A    between atoms: _569  and  _570
REMARK  235  A    between atoms: _570  and  _571
REMARK  236  A    between atoms: _576  and  _578
REMARK  237  A    between atoms: _578  and  _579
REMARK  238  A    between atoms: _578  and  _581
REMARK  239  A    between atoms: _581  and  _582
REMARK  240  A    between atoms: _585  and  _587
REMARK  241  A    between atoms: _587  and  _588
REMARK  242  A    between atoms: _590  and  _592
REMARK  243  A    between atoms: _592  and  _593
REMARK  244  A    between atoms: _596  and  _598
REMARK  245  A    between atoms: _598  and  _599
REMARK  246  A    between atoms: _598  and  _601
REMARK  247  A    between atoms: _601  and  _602
REMARK  248  A    between atoms: _607  and  _608
REMARK                            x       y       z     vdW  Elec       q    Type
REMARK                         _______ _______ _______ _____ _____    ______ ____
ROOT
ATOM      1  O   HOH     1      34.285  33.046  31.820  0.00  0.00    +0.000 OA
ENDROOT
TORSDOF 0
REMARK  Name = ../refined-set-2016/4el5/4el5_pocket.pdb
REMARK  248 active torsions:
REMARK  status: ('A' for Active; 'I' for Inactive)
REMARK    1  A    between atoms: _1  and  _3
REMARK    2  A    between atoms: _3  and  _4
REMARK    3  A    between atoms: _3  and  _6
REMARK    4  A    between atoms: _6  and  _7
REMARK    5  A    between atoms: _12  and  _13
REMARK    6  A    between atoms: _15  and  _17
REMARK    7  A    between atoms: _17  and  _18
REMARK    8  A    between atoms: _17  and  _20
REMARK    9  A    between atoms: _20  and  _21
REMARK   10  A    between atoms: _21  and  _22
REMARK   11  A    between atoms: _25  and  _27
REMARK   12  A    between atoms: _27  and  _28
REMARK   13  A    between atoms: _27  and  _30
REMARK   14  A    between atoms: _30  and  _31
REMARK   15  A    between atoms: _36  and  _38
REMARK   16  A    between atoms: _38  and  _39
REMARK   17  A    between atoms: _41  and  _43
REMARK   18  A    between atoms: _43  and  _44
REMARK   19  A    between atoms: _46  and  _48
REMARK   20  A    between atoms: _48  and  _49
REMARK   21  A    between atoms: _48  and  _51
REMARK   22  A    between atoms: _51  and  _52
REMARK   23  A    between atoms: _55  and  _57
REMARK   24  A    between atoms: _57  and  _58
REMARK   25  A    between atoms: _60  and  _62
REMARK   26  A    between atoms: _62  and  _63
REMARK   27  A    between atoms: _62  and  _65
REMARK   28  A    between atoms: _65  and  _66
REMARK   29  A    between atoms: _66  and  _67
REMARK   30  A    between atoms: _67  and  _68
REMARK   31  A    between atoms: _77  and  _79
REMARK   32  A    between atoms: _79  and  _80
REMARK   33  A    between atoms: _79  and  _82
REMARK   34  A    between atoms: _82  and  _83
REMARK   35  A    between atoms: _86  and  _88
REMARK   36  A    between atoms: _88  and  _89
REMARK   37  A    between atoms: _92  and  _94
REMARK   38  A    between atoms: _94  and  _95
REMARK   39  A    between atoms: _94  and  _97
REMARK   40  A    between atoms: _97  and  _98
REMARK   41  A    between atoms: _104  and  _106
REMARK   42  A    between atoms: _106  and  _107
REMARK   43  A    between atoms: _106  and  _109
REMARK   44  A    between atoms: _109  and  _110
REMARK   45  A    between atoms: _115  and  _117
REMARK   46  A    between atoms: _117  and  _118
REMARK   47  A    between atoms: _117  and  _120
REMARK   48  A    between atoms: _120  and  _121
REMARK   49  A    between atoms: _124  and  _126
REMARK   50  A    between atoms: _126  and  _127
REMARK   51  A    between atoms: _126  and  _129
REMARK   52  A    between atoms: _129  and  _130
REMARK   53  A    between atoms: _135  and  _137
REMARK   54  A    between atoms: _137  and  _138
REMARK   55  A    between atoms: _137  and  _140
REMARK   56  A    between atoms: _140  and  _141
REMARK   57  A    between atoms: _147  and  _149
REMARK   58  A    between atoms: _149  and  _150
REMARK   59  A    between atoms: _149  and  _152
REMARK   60  A    between atoms: _152  and  _153
REMARK   61  A    between atoms: _159  and  _161
REMARK   62  A    between atoms: _161  and  _162
REMARK   63  A    between atoms: _161  and  _164
REMARK   64  A    between atoms: _164  and  _165
REMARK   65  A    between atoms: _165  and  _166
REMARK   66  A    between atoms: _166  and  _167
REMARK   67  A    between atoms: _176  and  _178
REMARK   68  A    between atoms: _178  and  _179
REMARK   69  A    between atoms: _178  and  _181
REMARK   70  A    between atoms: _181  and  _182
REMARK   71  A    between atoms: _187  and  _189
REMARK   72  A    between atoms: _189  and  _190
REMARK   73  A    between atoms: _189  and  _192
REMARK   74  A    between atoms: _192  and  _193
REMARK   75  A    between atoms: _196  and  _198
REMARK   76  A    between atoms: _198  and  _199
REMARK   77  A    between atoms: _198  and  _201
REMARK   78  A    between atoms: _201  and  _202
REMARK   79  A    between atoms: _205  and  _207
REMARK   80  A    between atoms: _207  and  _208
REMARK   81  A    between atoms: _207  and  _210
REMARK   82  A    between atoms: _210  and  _211
REMARK   83  A    between atoms: _216  and  _218
REMARK   84  A    between atoms: _218  and  _219
REMARK   85  A    between atoms: _218  and  _221
REMARK   86  A    between atoms: _221  and  _222
REMARK   87  A    between atoms: _227  and  _228
REMARK   88  A    between atoms: _230  and  _232
REMARK   89  A    between atoms: _232  and  _233
REMARK   90  A    between atoms: _232  and  _235
REMARK   91  A    between atoms: _235  and  _236
REMARK   92  A    between atoms: _239  and  _241
REMARK   93  A    between atoms: _241  and  _242
REMARK   94  A    between atoms: _241  and  _244
REMARK   95  A    between atoms: _244  and  _245
REMARK   96  A    between atoms: _250  and  _252
REMARK   97  A    between atoms: _252  and  _253
REMARK   98  A    between atoms: _252  and  _255
REMARK   99  A    between atoms: _255  and  _256
REMARK  100  A    between atoms: _261  and  _263
REMARK  101  A    between atoms: _263  and  _264
REMARK  102  A    between atoms: _263  and  _266
REMARK  103  A    between atoms: _266  and  _267
REMARK  104  A    between atoms: _270  and  _272
REMARK  105  A    between atoms: _272  and  _273
REMARK  106  A    between atoms: _272  and  _275
REMARK  107  A    between atoms: _278  and  _280
REMARK  108  A    between atoms: _280  and  _281
REMARK  109  A    between atoms: _280  and  _283
REMARK  110  A    between atoms: _283  and  _284
REMARK  111  A    between atoms: _287  and  _289
REMARK  112  A    between atoms: _289  and  _290
REMARK  113  A    between atoms: _289  and  _292
REMARK  114  A    between atoms: _292  and  _293
REMARK  115  A    between atoms: _293  and  _294
REMARK  116  A    between atoms: _297  and  _299
REMARK  117  A    between atoms: _299  and  _300
REMARK  118  A    between atoms: _303  and  _305
REMARK  119  A    between atoms: _305  and  _306
REMARK  120  A    between atoms: _305  and  _308
REMARK  121  A    between atoms: _308  and  _309
REMARK  122  A    between atoms: _312  and  _314
REMARK  123  A    between atoms: _314  and  _315
REMARK  124  A    between atoms: _314  and  _317
REMARK  125  A    between atoms: _317  and  _318
REMARK  126  A    between atoms: _318  and  _319
REMARK  127  A    between atoms: _322  and  _324
REMARK  128  A    between atoms: _324  and  _325
REMARK  129  A    between atoms: _324  and  _327
REMARK  130  A    between atoms: _327  and  _328
REMARK  131  A    between atoms: _333  and  _335
REMARK  132  A    between atoms: _335  and  _336
REMARK  133  A    between atoms: _338  and  _340
REMARK  134  A    between atoms: _340  and  _341
REMARK  135  A    between atoms: _340  and  _343
REMARK  136  A    between atoms: _346  and  _348
REMARK  137  A    between atoms: _348  and  _349
REMARK  138  A    between atoms: _352  and  _354
REMARK  139  A    between atoms: _354  and  _355
REMARK  140  A    between atoms: _354  and  _357
REMARK  141  A    between atoms: _357  and  _358
REMARK  142  A    between atoms: _363  and  _365
REMARK  143  A    between atoms: _365  and  _366
REMARK  144  A    between atoms: _365  and  _368
REMARK  145  A    between atoms: _368  and  _369
REMARK  146  A    between atoms: _369  and  _370
REMARK  147  A    between atoms: _370  and  _371
REMARK  148  A    between atoms: _371  and  _372
REMARK  149  A    between atoms: _376  and  _378
REMARK  150  A    between atoms: _378  and  _379
REMARK  151  A    between atoms: _378  and  _381
REMARK  152  A    between atoms: _381  and  _382
REMARK  153  A    between atoms: _385  and  _387
REMARK  154  A    between atoms: _387  and  _388
REMARK  155  A    between atoms: _387  and  _390
REMARK  156  A    between atoms: _390  and  _391
REMARK  157  A    between atoms: _396  and  _398
REMARK  158  A    between atoms: _398  and  _399
REMARK  159  A    between atoms: _401  and  _403
REMARK  160  A    between atoms: _403  and  _404
REMARK  161  A    between atoms: _403  and  _406
REMARK  162  A    between atoms: _406  and  _407
REMARK  163  A    between atoms: _407  and  _408
REMARK  164  A    between atoms: _408  and  _409
REMARK  165  A    between atoms: _409  and  _410
REMARK  166  A    between atoms: _414  and  _416
REMARK  167  A    between atoms: _416  and  _417
REMARK  168  A    between atoms: _416  and  _419
REMARK  169  A    between atoms: _419  and  _420
REMARK  170  A    between atoms: _420  and  _421
REMARK  171  A    between atoms: _421  and  _422
REMARK  172  A    between atoms: _431  and  _433
REMARK  173  A    between atoms: _433  and  _434
REMARK  174  A    between atoms: _433  and  _436
REMARK  175  A    between atoms: _436  and  _437
REMARK  176  A    between atoms: _442  and  _444
REMARK  177  A    between atoms: _444  and  _445
REMARK  178  A    between atoms: _444  and  _447
REMARK  179  A    between atoms: _447  and  _448
REMARK  180  A    between atoms: _453  and  _454
REMARK  181  A    between atoms: _456  and  _458
REMARK  182  A    between atoms: _458  and  _459
REMARK  183  A    between atoms: _458  and  _461
REMARK  184  A    between atoms: _461  and  _462
REMARK  185  A    between atoms: _462  and  _463
REMARK  186  A    between atoms: _463  and  _464
REMARK  187  A    between atoms: _464  and  _465
REMARK  188  A    between atoms: _469  and  _471
REMARK  189  A    between atoms: _471  and  _472
REMARK  190  A    between atoms: _471  and  _474
REMARK  191  A    between atoms: _474  and  _475
REMARK  192  A    between atoms: _477  and  _479
REMARK  193  A    between atoms: _479  and  _480
REMARK  194  A    between atoms: _479  and  _482
REMARK  195  A    between atoms: _482  and  _483
REMARK  196  A    between atoms: _486  and  _488
REMARK  197  A    between atoms: _488  and  _489
REMARK  198  A    between atoms: _488  and  _491
REMARK  199  A    between atoms: _491  and  _492
REMARK  200  A    between atoms: _492  and  _493
REMARK  201  A    between atoms: _496  and  _498
REMARK  202  A    between atoms: _498  and  _499
REMARK  203  A    between atoms: _502  and  _504
REMARK  204  A    between atoms: _504  and  _505
REMARK  205  A    between atoms: _504  and  _507
REMARK  206  A    between atoms: _507  and  _508
REMARK  207  A    between atoms: _510  and  _512
REMARK  208  A    between atoms: _512  and  _513
REMARK  209  A    between atoms: _515  and  _517
REMARK  210  A    between atoms: _517  and  _518
REMARK  211  A    between atoms: _517  and  _520
REMARK  212  A    between atoms: _520  and  _521
REMARK  213  A    between atoms: _524  and  _526
REMARK  214  A    between atoms: _526  and  _527
REMARK  215  A    between atoms: _529  and  _531
REMARK  216  A    between atoms: _531  and  _532
REMARK  217  A    between atoms: _531  and  _534
REMARK  218  A    between atoms: _534  and  _535
REMARK  219  A    between atoms: _540  and  _542
REMARK  220  A    between atoms: _542  and  _543
REMARK  221  A    between atoms: _542  and  _545
REMARK  222  A    between atoms: _545  and  _546
REMARK  223  A    between atoms: _546  and  _547
REMARK  224  A    between atoms: _554  and  _555
REMARK  225  A    between atoms: _555  and  _571
REMARK  226  A    between atoms: _556  and  _558
REMARK  227  A    between atoms: _558  and  _559
REMARK  228  A    between atoms: _559  and  _560
REMARK  229  A    between atoms: _564  and  _566
REMARK  230  A    between atoms: _566  and  _567
REMARK  231  A    between atoms: _566  and  _574
REMARK  232  A    between atoms: _567  and  _568
REMARK  233  A    between atoms: _568  and  _569
REMARK  234  A    between atoms: _569  and  _570
REMARK  235  A    between atoms: _570  and  _571
REMARK  236  A    between atoms: _576  and  _578
REMARK  237  A    between atoms: _578  and  _579
REMARK  238  A    between atoms: _578  and  _581
REMARK  239  A    between atoms: _581  and  _582
REMARK  240  A    between atoms: _585  and  _587
REMARK  241  A    between atoms: _587  and  _588
REMARK  242  A    between atoms: _590  and  _592
REMARK  243  A    between atoms: _592  and  _593
REMARK  244  A    between atoms: _596  and  _598
REMARK  245  A    between atoms: _598  and  _599
REMARK  246  A    between atoms: _598  and  _601
REMARK  247  A    between atoms: _601  and  _602
REMARK  248  A    between atoms: _607  and  _608
REMARK                            x       y       z     vdW  Elec       q    Type
REMARK                         _______ _______ _______ _____ _____    ______ ____
ROOT
ATOM      1  O   HOH     1      26.389  16.633  28.727  0.00  0.00    +0.000 OA
ENDROOT
TORSDOF 0
REMARK  Name = ../refined-set-2016/4el5/4el5_pocket.pdb
REMARK  248 active torsions:
REMARK  status: ('A' for Active; 'I' for Inactive)
REMARK    1  A    between atoms: _1  and  _3
REMARK    2  A    between atoms: _3  and  _4
REMARK    3  A    between atoms: _3  and  _6
REMARK    4  A    between atoms: _6  and  _7
REMARK    5  A    between atoms: _12  and  _13
REMARK    6  A    between atoms: _15  and  _17
REMARK    7  A    between atoms: _17  and  _18
REMARK    8  A    between atoms: _17  and  _20
REMARK    9  A    between atoms: _20  and  _21
REMARK   10  A    between atoms: _21  and  _22
REMARK   11  A    between atoms: _25  and  _27
REMARK   12  A    between atoms: _27  and  _28
REMARK   13  A    between atoms: _27  and  _30
REMARK   14  A    between atoms: _30  and  _31
REMARK   15  A    between atoms: _36  and  _38
REMARK   16  A    between atoms: _38  and  _39
REMARK   17  A    between atoms: _41  and  _43
REMARK   18  A    between atoms: _43  and  _44
REMARK   19  A    between atoms: _46  and  _48
REMARK   20  A    between atoms: _48  and  _49
REMARK   21  A    between atoms: _48  and  _51
REMARK   22  A    between atoms: _51  and  _52
REMARK   23  A    between atoms: _55  and  _57
REMARK   24  A    between atoms: _57  and  _58
REMARK   25  A    between atoms: _60  and  _62
REMARK   26  A    between atoms: _62  and  _63
REMARK   27  A    between atoms: _62  and  _65
REMARK   28  A    between atoms: _65  and  _66
REMARK   29  A    between atoms: _66  and  _67
REMARK   30  A    between atoms: _67  and  _68
REMARK   31  A    between atoms: _77  and  _79
REMARK   32  A    between atoms: _79  and  _80
REMARK   33  A    between atoms: _79  and  _82
REMARK   34  A    between atoms: _82  and  _83
REMARK   35  A    between atoms: _86  and  _88
REMARK   36  A    between atoms: _88  and  _89
REMARK   37  A    between atoms: _92  and  _94
REMARK   38  A    between atoms: _94  and  _95
REMARK   39  A    between atoms: _94  and  _97
REMARK   40  A    between atoms: _97  and  _98
REMARK   41  A    between atoms: _104  and  _106
REMARK   42  A    between atoms: _106  and  _107
REMARK   43  A    between atoms: _106  and  _109
REMARK   44  A    between atoms: _109  and  _110
REMARK   45  A    between atoms: _115  and  _117
REMARK   46  A    between atoms: _117  and  _118
REMARK   47  A    between atoms: _117  and  _120
REMARK   48  A    between atoms: _120  and  _121
REMARK   49  A    between atoms: _124  and  _126
REMARK   50  A    between atoms: _126  and  _127
REMARK   51  A    between atoms: _126  and  _129
REMARK   52  A    between atoms: _129  and  _130
REMARK   53  A    between atoms: _135  and  _137
REMARK   54  A    between atoms: _137  and  _138
REMARK   55  A    between atoms: _137  and  _140
REMARK   56  A    between atoms: _140  and  _141
REMARK   57  A    between atoms: _147  and  _149
REMARK   58  A    between atoms: _149  and  _150
REMARK   59  A    between atoms: _149  and  _152
REMARK   60  A    between atoms: _152  and  _153
REMARK   61  A    between atoms: _159  and  _161
REMARK   62  A    between atoms: _161  and  _162
REMARK   63  A    between atoms: _161  and  _164
REMARK   64  A    between atoms: _164  and  _165
REMARK   65  A    between atoms: _165  and  _166
REMARK   66  A    between atoms: _166  and  _167
REMARK   67  A    between atoms: _176  and  _178
REMARK   68  A    between atoms: _178  and  _179
REMARK   69  A    between atoms: _178  and  _181
REMARK   70  A    between atoms: _181  and  _182
REMARK   71  A    between atoms: _187  and  _189
REMARK   72  A    between atoms: _189  and  _190
REMARK   73  A    between atoms: _189  and  _192
REMARK   74  A    between atoms: _192  and  _193
REMARK   75  A    between atoms: _196  and  _198
REMARK   76  A    between atoms: _198  and  _199
REMARK   77  A    between atoms: _198  and  _201
REMARK   78  A    between atoms: _201  and  _202
REMARK   79  A    between atoms: _205  and  _207
REMARK   80  A    between atoms: _207  and  _208
REMARK   81  A    between atoms: _207  and  _210
REMARK   82  A    between atoms: _210  and  _211
REMARK   83  A    between atoms: _216  and  _218
REMARK   84  A    between atoms: _218  and  _219
REMARK   85  A    between atoms: _218  and  _221
REMARK   86  A    between atoms: _221  and  _222
REMARK   87  A    between atoms: _227  and  _228
REMARK   88  A    between atoms: _230  and  _232
REMARK   89  A    between atoms: _232  and  _233
REMARK   90  A    between atoms: _232  and  _235
REMARK   91  A    between atoms: _235  and  _236
REMARK   92  A    between atoms: _239  and  _241
REMARK   93  A    between atoms: _241  and  _242
REMARK   94  A    between atoms: _241  and  _244
REMARK   95  A    between atoms: _244  and  _245
REMARK   96  A    between atoms: _250  and  _252
REMARK   97  A    between atoms: _252  and  _253
REMARK   98  A    between atoms: _252  and  _255
REMARK   99  A    between atoms: _255  and  _256
REMARK  100  A    between atoms: _261  and  _263
REMARK  101  A    between atoms: _263  and  _264
REMARK  102  A    between atoms: _263  and  _266
REMARK  103  A    between atoms: _266  and  _267
REMARK  104  A    between atoms: _270  and  _272
REMARK  105  A    between atoms: _272  and  _273
REMARK  106  A    between atoms: _272  and  _275
REMARK  107  A    between atoms: _278  and  _280
REMARK  108  A    between atoms: _280  and  _281
REMARK  109  A    between atoms: _280  and  _283
REMARK  110  A    between atoms: _283  and  _284
REMARK  111  A    between atoms: _287  and  _289
REMARK  112  A    between atoms: _289  and  _290
REMARK  113  A    between atoms: _289  and  _292
REMARK  114  A    between atoms: _292  and  _293
REMARK  115  A    between atoms: _293  and  _294
REMARK  116  A    between atoms: _297  and  _299
REMARK  117  A    between atoms: _299  and  _300
REMARK  118  A    between atoms: _303  and  _305
REMARK  119  A    between atoms: _305  and  _306
REMARK  120  A    between atoms: _305  and  _308
REMARK  121  A    between atoms: _308  and  _309
REMARK  122  A    between atoms: _312  and  _314
REMARK  123  A    between atoms: _314  and  _315
REMARK  124  A    between atoms: _314  and  _317
REMARK  125  A    between atoms: _317  and  _318
REMARK  126  A    between atoms: _318  and  _319
REMARK  127  A    between atoms: _322  and  _324
REMARK  128  A    between atoms: _324  and  _325
REMARK  129  A    between atoms: _324  and  _327
REMARK  130  A    between atoms: _327  and  _328
REMARK  131  A    between atoms: _333  and  _335
REMARK  132  A    between atoms: _335  and  _336
REMARK  133  A    between atoms: _338  and  _340
REMARK  134  A    between atoms: _340  and  _341
REMARK  135  A    between atoms: _340  and  _343
REMARK  136  A    between atoms: _346  and  _348
REMARK  137  A    between atoms: _348  and  _349
REMARK  138  A    between atoms: _352  and  _354
REMARK  139  A    between atoms: _354  and  _355
REMARK  140  A    between atoms: _354  and  _357
REMARK  141  A    between atoms: _357  and  _358
REMARK  142  A    between atoms: _363  and  _365
REMARK  143  A    between atoms: _365  and  _366
REMARK  144  A    between atoms: _365  and  _368
REMARK  145  A    between atoms: _368  and  _369
REMARK  146  A    between atoms: _369  and  _370
REMARK  147  A    between atoms: _370  and  _371
REMARK  148  A    between atoms: _371  and  _372
REMARK  149  A    between atoms: _376  and  _378
REMARK  150  A    between atoms: _378  and  _379
REMARK  151  A    between atoms: _378  and  _381
REMARK  152  A    between atoms: _381  and  _382
REMARK  153  A    between atoms: _385  and  _387
REMARK  154  A    between atoms: _387  and  _388
REMARK  155  A    between atoms: _387  and  _390
REMARK  156  A    between atoms: _390  and  _391
REMARK  157  A    between atoms: _396  and  _398
REMARK  158  A    between atoms: _398  and  _399
REMARK  159  A    between atoms: _401  and  _403
REMARK  160  A    between atoms: _403  and  _404
REMARK  161  A    between atoms: _403  and  _406
REMARK  162  A    between atoms: _406  and  _407
REMARK  163  A    between atoms: _407  and  _408
REMARK  164  A    between atoms: _408  and  _409
REMARK  165  A    between atoms: _409  and  _410
REMARK  166  A    between atoms: _414  and  _416
REMARK  167  A    between atoms: _416  and  _417
REMARK  168  A    between atoms: _416  and  _419
REMARK  169  A    between atoms: _419  and  _420
REMARK  170  A    between atoms: _420  and  _421
REMARK  171  A    between atoms: _421  and  _422
REMARK  172  A    between atoms: _431  and  _433
REMARK  173  A    between atoms: _433  and  _434
REMARK  174  A    between atoms: _433  and  _436
REMARK  175  A    between atoms: _436  and  _437
REMARK  176  A    between atoms: _442  and  _444
REMARK  177  A    between atoms: _444  and  _445
REMARK  178  A    between atoms: _444  and  _447
REMARK  179  A    between atoms: _447  and  _448
REMARK  180  A    between atoms: _453  and  _454
REMARK  181  A    between atoms: _456  and  _458
REMARK  182  A    between atoms: _458  and  _459
REMARK  183  A    between atoms: _458  and  _461
REMARK  184  A    between atoms: _461  and  _462
REMARK  185  A    between atoms: _462  and  _463
REMARK  186  A    between atoms: _463  and  _464
REMARK  187  A    between atoms: _464  and  _465
REMARK  188  A    between atoms: _469  and  _471
REMARK  189  A    between atoms: _471  and  _472
REMARK  190  A    between atoms: _471  and  _474
REMARK  191  A    between atoms: _474  and  _475
REMARK  192  A    between atoms: _477  and  _479
REMARK  193  A    between atoms: _479  and  _480
REMARK  194  A    between atoms: _479  and  _482
REMARK  195  A    between atoms: _482  and  _483
REMARK  196  A    between atoms: _486  and  _488
REMARK  197  A    between atoms: _488  and  _489
REMARK  198  A    between atoms: _488  and  _491
REMARK  199  A    between atoms: _491  and  _492
REMARK  200  A    between atoms: _492  and  _493
REMARK  201  A    between atoms: _496  and  _498
REMARK  202  A    between atoms: _498  and  _499
REMARK  203  A    between atoms: _502  and  _504
REMARK  204  A    between atoms: _504  and  _505
REMARK  205  A    between atoms: _504  and  _507
REMARK  206  A    between atoms: _507  and  _508
REMARK  207  A    between atoms: _510  and  _512
REMARK  208  A    between atoms: _512  and  _513
REMARK  209  A    between atoms: _515  and  _517
REMARK  210  A    between atoms: _517  and  _518
REMARK  211  A    between atoms: _517  and  _520
REMARK  212  A    between atoms: _520  and  _521
REMARK  213  A    between atoms: _524  and  _526
REMARK  214  A    between atoms: _526  and  _527
REMARK  215  A    between atoms: _529  and  _531
REMARK  216  A    between atoms: _531  and  _532
REMARK  217  A    between atoms: _531  and  _534
REMARK  218  A    between atoms: _534  and  _535
REMARK  219  A    between atoms: _540  and  _542
REMARK  220  A    between atoms: _542  and  _543
REMARK  221  A    between atoms: _542  and  _545
REMARK  222  A    between atoms: _545  and  _546
REMARK  223  A    between atoms: _546  and  _547
REMARK  224  A    between atoms: _554  and  _555
REMARK  225  A    between atoms: _555  and  _571
REMARK  226  A    between atoms: _556  and  _558
REMARK  227  A    between atoms: _558  and  _559
REMARK  228  A    between atoms: _559  and  _560
REMARK  229  A    between atoms: _564  and  _566
REMARK  230  A    between atoms: _566  and  _567
REMARK  231  A    between atoms: _566  and  _574
REMARK  232  A    between atoms: _567  and  _568
REMARK  233  A    between atoms: _568  and  _569
REMARK  234  A    between atoms: _569  and  _570
REMARK  235  A    between atoms: _570  and  _571
REMARK  236  A    between atoms: _576  and  _578
REMARK  237  A    between atoms: _578  and  _579
REMARK  238  A    between atoms: _578  and  _581
REMARK  239  A    between atoms: _581  and  _582
REMARK  240  A    between atoms: _585  and  _587
REMARK  241  A    between atoms: _587  and  _588
REMARK  242  A    between atoms: _590  and  _592
REMARK  243  A    between atoms: _592  and  _593
REMARK  244  A    between atoms: _596  and  _598
REMARK  245  A    between atoms: _598  and  _599
REMARK  246  A    between atoms: _598  and  _601
REMARK  247  A    between atoms: _601  and  _602
REMARK  248  A    between atoms: _607  and  _608
REMARK                            x       y       z     vdW  Elec       q    Type
REMARK                         _______ _______ _______ _____ _____    ______ ____
ROOT
ATOM      1  O   HOH     1      44.393  22.922  31.955  0.00  0.00    +0.000 OA
ENDROOT
TORSDOF 0
REMARK  Name = ../refined-set-2016/4el5/4el5_pocket.pdb
REMARK  248 active torsions:
REMARK  status: ('A' for Active; 'I' for Inactive)
REMARK    1  A    between atoms: _1  and  _3
REMARK    2  A    between atoms: _3  and  _4
REMARK    3  A    between atoms: _3  and  _6
REMARK    4  A    between atoms: _6  and  _7
REMARK    5  A    between atoms: _12  and  _13
REMARK    6  A    between atoms: _15  and  _17
REMARK    7  A    between atoms: _17  and  _18
REMARK    8  A    between atoms: _17  and  _20
REMARK    9  A    between atoms: _20  and  _21
REMARK   10  A    between atoms: _21  and  _22
REMARK   11  A    between atoms: _25  and  _27
REMARK   12  A    between atoms: _27  and  _28
REMARK   13  A    between atoms: _27  and  _30
REMARK   14  A    between atoms: _30  and  _31
REMARK   15  A    between atoms: _36  and  _38
REMARK   16  A    between atoms: _38  and  _39
REMARK   17  A    between atoms: _41  and  _43
REMARK   18  A    between atoms: _43  and  _44
REMARK   19  A    between atoms: _46  and  _48
REMARK   20  A    between atoms: _48  and  _49
REMARK   21  A    between atoms: _48  and  _51
REMARK   22  A    between atoms: _51  and  _52
REMARK   23  A    between atoms: _55  and  _57
REMARK   24  A    between atoms: _57  and  _58
REMARK   25  A    between atoms: _60  and  _62
REMARK   26  A    between atoms: _62  and  _63
REMARK   27  A    between atoms: _62  and  _65
REMARK   28  A    between atoms: _65  and  _66
REMARK   29  A    between atoms: _66  and  _67
REMARK   30  A    between atoms: _67  and  _68
REMARK   31  A    between atoms: _77  and  _79
REMARK   32  A    between atoms: _79  and  _80
REMARK   33  A    between atoms: _79  and  _82
REMARK   34  A    between atoms: _82  and  _83
REMARK   35  A    between atoms: _86  and  _88
REMARK   36  A    between atoms: _88  and  _89
REMARK   37  A    between atoms: _92  and  _94
REMARK   38  A    between atoms: _94  and  _95
REMARK   39  A    between atoms: _94  and  _97
REMARK   40  A    between atoms: _97  and  _98
REMARK   41  A    between atoms: _104  and  _106
REMARK   42  A    between atoms: _106  and  _107
REMARK   43  A    between atoms: _106  and  _109
REMARK   44  A    between atoms: _109  and  _110
REMARK   45  A    between atoms: _115  and  _117
REMARK   46  A    between atoms: _117  and  _118
REMARK   47  A    between atoms: _117  and  _120
REMARK   48  A    between atoms: _120  and  _121
REMARK   49  A    between atoms: _124  and  _126
REMARK   50  A    between atoms: _126  and  _127
REMARK   51  A    between atoms: _126  and  _129
REMARK   52  A    between atoms: _129  and  _130
REMARK   53  A    between atoms: _135  and  _137
REMARK   54  A    between atoms: _137  and  _138
REMARK   55  A    between atoms: _137  and  _140
REMARK   56  A    between atoms: _140  and  _141
REMARK   57  A    between atoms: _147  and  _149
REMARK   58  A    between atoms: _149  and  _150
REMARK   59  A    between atoms: _149  and  _152
REMARK   60  A    between atoms: _152  and  _153
REMARK   61  A    between atoms: _159  and  _161
REMARK   62  A    between atoms: _161  and  _162
REMARK   63  A    between atoms: _161  and  _164
REMARK   64  A    between atoms: _164  and  _165
REMARK   65  A    between atoms: _165  and  _166
REMARK   66  A    between atoms: _166  and  _167
REMARK   67  A    between atoms: _176  and  _178
REMARK   68  A    between atoms: _178  and  _179
REMARK   69  A    between atoms: _178  and  _181
REMARK   70  A    between atoms: _181  and  _182
REMARK   71  A    between atoms: _187  and  _189
REMARK   72  A    between atoms: _189  and  _190
REMARK   73  A    between atoms: _189  and  _192
REMARK   74  A    between atoms: _192  and  _193
REMARK   75  A    between atoms: _196  and  _198
REMARK   76  A    between atoms: _198  and  _199
REMARK   77  A    between atoms: _198  and  _201
REMARK   78  A    between atoms: _201  and  _202
REMARK   79  A    between atoms: _205  and  _207
REMARK   80  A    between atoms: _207  and  _208
REMARK   81  A    between atoms: _207  and  _210
REMARK   82  A    between atoms: _210  and  _211
REMARK   83  A    between atoms: _216  and  _218
REMARK   84  A    between atoms: _218  and  _219
REMARK   85  A    between atoms: _218  and  _221
REMARK   86  A    between atoms: _221  and  _222
REMARK   87  A    between atoms: _227  and  _228
REMARK   88  A    between atoms: _230  and  _232
REMARK   89  A    between atoms: _232  and  _233
REMARK   90  A    between atoms: _232  and  _235
REMARK   91  A    between atoms: _235  and  _236
REMARK   92  A    between atoms: _239  and  _241
REMARK   93  A    between atoms: _241  and  _242
REMARK   94  A    between atoms: _241  and  _244
REMARK   95  A    between atoms: _244  and  _245
REMARK   96  A    between atoms: _250  and  _252
REMARK   97  A    between atoms: _252  and  _253
REMARK   98  A    between atoms: _252  and  _255
REMARK   99  A    between atoms: _255  and  _256
REMARK  100  A    between atoms: _261  and  _263
REMARK  101  A    between atoms: _263  and  _264
REMARK  102  A    between atoms: _263  and  _266
REMARK  103  A    between atoms: _266  and  _267
REMARK  104  A    between atoms: _270  and  _272
REMARK  105  A    between atoms: _272  and  _273
REMARK  106  A    between atoms: _272  and  _275
REMARK  107  A    between atoms: _278  and  _280
REMARK  108  A    between atoms: _280  and  _281
REMARK  109  A    between atoms: _280  and  _283
REMARK  110  A    between atoms: _283  and  _284
REMARK  111  A    between atoms: _287  and  _289
REMARK  112  A    between atoms: _289  and  _290
REMARK  113  A    between atoms: _289  and  _292
REMARK  114  A    between atoms: _292  and  _293
REMARK  115  A    between atoms: _293  and  _294
REMARK  116  A    between atoms: _297  and  _299
REMARK  117  A    between atoms: _299  and  _300
REMARK  118  A    between atoms: _303  and  _305
REMARK  119  A    between atoms: _305  and  _306
REMARK  120  A    between atoms: _305  and  _308
REMARK  121  A    between atoms: _308  and  _309
REMARK  122  A    between atoms: _312  and  _314
REMARK  123  A    between atoms: _314  and  _315
REMARK  124  A    between atoms: _314  and  _317
REMARK  125  A    between atoms: _317  and  _318
REMARK  126  A    between atoms: _318  and  _319
REMARK  127  A    between atoms: _322  and  _324
REMARK  128  A    between atoms: _324  and  _325
REMARK  129  A    between atoms: _324  and  _327
REMARK  130  A    between atoms: _327  and  _328
REMARK  131  A    between atoms: _333  and  _335
REMARK  132  A    between atoms: _335  and  _336
REMARK  133  A    between atoms: _338  and  _340
REMARK  134  A    between atoms: _340  and  _341
REMARK  135  A    between atoms: _340  and  _343
REMARK  136  A    between atoms: _346  and  _348
REMARK  137  A    between atoms: _348  and  _349
REMARK  138  A    between atoms: _352  and  _354
REMARK  139  A    between atoms: _354  and  _355
REMARK  140  A    between atoms: _354  and  _357
REMARK  141  A    between atoms: _357  and  _358
REMARK  142  A    between atoms: _363  and  _365
REMARK  143  A    between atoms: _365  and  _366
REMARK  144  A    between atoms: _365  and  _368
REMARK  145  A    between atoms: _368  and  _369
REMARK  146  A    between atoms: _369  and  _370
REMARK  147  A    between atoms: _370  and  _371
REMARK  148  A    between atoms: _371  and  _372
REMARK  149  A    between atoms: _376  and  _378
REMARK  150  A    between atoms: _378  and  _379
REMARK  151  A    between atoms: _378  and  _381
REMARK  152  A    between atoms: _381  and  _382
REMARK  153  A    between atoms: _385  and  _387
REMARK  154  A    between atoms: _387  and  _388
REMARK  155  A    between atoms: _387  and  _390
REMARK  156  A    between atoms: _390  and  _391
REMARK  157  A    between atoms: _396  and  _398
REMARK  158  A    between atoms: _398  and  _399
REMARK  159  A    between atoms: _401  and  _403
REMARK  160  A    between atoms: _403  and  _404
REMARK  161  A    between atoms: _403  and  _406
REMARK  162  A    between atoms: _406  and  _407
REMARK  163  A    between atoms: _407  and  _408
REMARK  164  A    between atoms: _408  and  _409
REMARK  165  A    between atoms: _409  and  _410
REMARK  166  A    between atoms: _414  and  _416
REMARK  167  A    between atoms: _416  and  _417
REMARK  168  A    between atoms: _416  and  _419
REMARK  169  A    between atoms: _419  and  _420
REMARK  170  A    between atoms: _420  and  _421
REMARK  171  A    between atoms: _421  and  _422
REMARK  172  A    between atoms: _431  and  _433
REMARK  173  A    between atoms: _433  and  _434
REMARK  174  A    between atoms: _433  and  _436
REMARK  175  A    between atoms: _436  and  _437
REMARK  176  A    between atoms: _442  and  _444
REMARK  177  A    between atoms: _444  and  _445
REMARK  178  A    between atoms: _444  and  _447
REMARK  179  A    between atoms: _447  and  _448
REMARK  180  A    between atoms: _453  and  _454
REMARK  181  A    between atoms: _456  and  _458
REMARK  182  A    between atoms: _458  and  _459
REMARK  183  A    between atoms: _458  and  _461
REMARK  184  A    between atoms: _461  and  _462
REMARK  185  A    between atoms: _462  and  _463
REMARK  186  A    between atoms: _463  and  _464
REMARK  187  A    between atoms: _464  and  _465
REMARK  188  A    between atoms: _469  and  _471
REMARK  189  A    between atoms: _471  and  _472
REMARK  190  A    between atoms: _471  and  _474
REMARK  191  A    between atoms: _474  and  _475
REMARK  192  A    between atoms: _477  and  _479
REMARK  193  A    between atoms: _479  and  _480
REMARK  194  A    between atoms: _479  and  _482
REMARK  195  A    between atoms: _482  and  _483
REMARK  196  A    between atoms: _486  and  _488
REMARK  197  A    between atoms: _488  and  _489
REMARK  198  A    between atoms: _488  and  _491
REMARK  199  A    between atoms: _491  and  _492
REMARK  200  A    between atoms: _492  and  _493
REMARK  201  A    between atoms: _496  and  _498
REMARK  202  A    between atoms: _498  and  _499
REMARK  203  A    between atoms: _502  and  _504
REMARK  204  A    between atoms: _504  and  _505
REMARK  205  A    between atoms: _504  and  _507
REMARK  206  A    between atoms: _507  and  _508
REMARK  207  A    between atoms: _510  and  _512
REMARK  208  A    between atoms: _512  and  _513
REMARK  209  A    between atoms: _515  and  _517
REMARK  210  A    between atoms: _517  and  _518
REMARK  211  A    between atoms: _517  and  _520
REMARK  212  A    between atoms: _520  and  _521
REMARK  213  A    between atoms: _524  and  _526
REMARK  214  A    between atoms: _526  and  _527
REMARK  215  A    between atoms: _529  and  _531
REMARK  216  A    between atoms: _531  and  _532
REMARK  217  A    between atoms: _531  and  _534
REMARK  218  A    between atoms: _534  and  _535
REMARK  219  A    between atoms: _540  and  _542
REMARK  220  A    between atoms: _542  and  _543
REMARK  221  A    between atoms: _542  and  _545
REMARK  222  A    between atoms: _545  and  _546
REMARK  223  A    between atoms: _546  and  _547
REMARK  224  A    between atoms: _554  and  _555
REMARK  225  A    between atoms: _555  and  _571
REMARK  226  A    between atoms: _556  and  _558
REMARK  227  A    between atoms: _558  and  _559
REMARK  228  A    between atoms: _559  and  _560
REMARK  229  A    between atoms: _564  and  _566
REMARK  230  A    between atoms: _566  and  _567
REMARK  231  A    between atoms: _566  and  _574
REMARK  232  A    between atoms: _567  and  _568
REMARK  233  A    between atoms: _568  and  _569
REMARK  234  A    between atoms: _569  and  _570
REMARK  235  A    between atoms: _570  and  _571
REMARK  236  A    between atoms: _576  and  _578
REMARK  237  A    between atoms: _578  and  _579
REMARK  238  A    between atoms: _578  and  _581
REMARK  239  A    between atoms: _581  and  _582
REMARK  240  A    between atoms: _585  and  _587
REMARK  241  A    between atoms: _587  and  _588
REMARK  242  A    between atoms: _590  and  _592
REMARK  243  A    between atoms: _592  and  _593
REMARK  244  A    between atoms: _596  and  _598
REMARK  245  A    between atoms: _598  and  _599
REMARK  246  A    between atoms: _598  and  _601
REMARK  247  A    between atoms: _601  and  _602
REMARK  248  A    between atoms: _607  and  _608
REMARK                            x       y       z     vdW  Elec       q    Type
REMARK                         _______ _______ _______ _____ _____    ______ ____
ROOT
ATOM      1  O   HOH     1      30.204  26.366  29.240  0.00  0.00    +0.000 OA
ENDROOT
TORSDOF 0
REMARK  Name = ../refined-set-2016/4el5/4el5_pocket.pdb
REMARK  248 active torsions:
REMARK  status: ('A' for Active; 'I' for Inactive)
REMARK    1  A    between atoms: _1  and  _3
REMARK    2  A    between atoms: _3  and  _4
REMARK    3  A    between atoms: _3  and  _6
REMARK    4  A    between atoms: _6  and  _7
REMARK    5  A    between atoms: _12  and  _13
REMARK    6  A    between atoms: _15  and  _17
REMARK    7  A    between atoms: _17  and  _18
REMARK    8  A    between atoms: _17  and  _20
REMARK    9  A    between atoms: _20  and  _21
REMARK   10  A    between atoms: _21  and  _22
REMARK   11  A    between atoms: _25  and  _27
REMARK   12  A    between atoms: _27  and  _28
REMARK   13  A    between atoms: _27  and  _30
REMARK   14  A    between atoms: _30  and  _31
REMARK   15  A    between atoms: _36  and  _38
REMARK   16  A    between atoms: _38  and  _39
REMARK   17  A    between atoms: _41  and  _43
REMARK   18  A    between atoms: _43  and  _44
REMARK   19  A    between atoms: _46  and  _48
REMARK   20  A    between atoms: _48  and  _49
REMARK   21  A    between atoms: _48  and  _51
REMARK   22  A    between atoms: _51  and  _52
REMARK   23  A    between atoms: _55  and  _57
REMARK   24  A    between atoms: _57  and  _58
REMARK   25  A    between atoms: _60  and  _62
REMARK   26  A    between atoms: _62  and  _63
REMARK   27  A    between atoms: _62  and  _65
REMARK   28  A    between atoms: _65  and  _66
REMARK   29  A    between atoms: _66  and  _67
REMARK   30  A    between atoms: _67  and  _68
REMARK   31  A    between atoms: _77  and  _79
REMARK   32  A    between atoms: _79  and  _80
REMARK   33  A    between atoms: _79  and  _82
REMARK   34  A    between atoms: _82  and  _83
REMARK   35  A    between atoms: _86  and  _88
REMARK   36  A    between atoms: _88  and  _89
REMARK   37  A    between atoms: _92  and  _94
REMARK   38  A    between atoms: _94  and  _95
REMARK   39  A    between atoms: _94  and  _97
REMARK   40  A    between atoms: _97  and  _98
REMARK   41  A    between atoms: _104  and  _106
REMARK   42  A    between atoms: _106  and  _107
REMARK   43  A    between atoms: _106  and  _109
REMARK   44  A    between atoms: _109  and  _110
REMARK   45  A    between atoms: _115  and  _117
REMARK   46  A    between atoms: _117  and  _118
REMARK   47  A    between atoms: _117  and  _120
REMARK   48  A    between atoms: _120  and  _121
REMARK   49  A    between atoms: _124  and  _126
REMARK   50  A    between atoms: _126  and  _127
REMARK   51  A    between atoms: _126  and  _129
REMARK   52  A    between atoms: _129  and  _130
REMARK   53  A    between atoms: _135  and  _137
REMARK   54  A    between atoms: _137  and  _138
REMARK   55  A    between atoms: _137  and  _140
REMARK   56  A    between atoms: _140  and  _141
REMARK   57  A    between atoms: _147  and  _149
REMARK   58  A    between atoms: _149  and  _150
REMARK   59  A    between atoms: _149  and  _152
REMARK   60  A    between atoms: _152  and  _153
REMARK   61  A    between atoms: _159  and  _161
REMARK   62  A    between atoms: _161  and  _162
REMARK   63  A    between atoms: _161  and  _164
REMARK   64  A    between atoms: _164  and  _165
REMARK   65  A    between atoms: _165  and  _166
REMARK   66  A    between atoms: _166  and  _167
REMARK   67  A    between atoms: _176  and  _178
REMARK   68  A    between atoms: _178  and  _179
REMARK   69  A    between atoms: _178  and  _181
REMARK   70  A    between atoms: _181  and  _182
REMARK   71  A    between atoms: _187  and  _189
REMARK   72  A    between atoms: _189  and  _190
REMARK   73  A    between atoms: _189  and  _192
REMARK   74  A    between atoms: _192  and  _193
REMARK   75  A    between atoms: _196  and  _198
REMARK   76  A    between atoms: _198  and  _199
REMARK   77  A    between atoms: _198  and  _201
REMARK   78  A    between atoms: _201  and  _202
REMARK   79  A    between atoms: _205  and  _207
REMARK   80  A    between atoms: _207  and  _208
REMARK   81  A    between atoms: _207  and  _210
REMARK   82  A    between atoms: _210  and  _211
REMARK   83  A    between atoms: _216  and  _218
REMARK   84  A    between atoms: _218  and  _219
REMARK   85  A    between atoms: _218  and  _221
REMARK   86  A    between atoms: _221  and  _222
REMARK   87  A    between atoms: _227  and  _228
REMARK   88  A    between atoms: _230  and  _232
REMARK   89  A    between atoms: _232  and  _233
REMARK   90  A    between atoms: _232  and  _235
REMARK   91  A    between atoms: _235  and  _236
REMARK   92  A    between atoms: _239  and  _241
REMARK   93  A    between atoms: _241  and  _242
REMARK   94  A    between atoms: _241  and  _244
REMARK   95  A    between atoms: _244  and  _245
REMARK   96  A    between atoms: _250  and  _252
REMARK   97  A    between atoms: _252  and  _253
REMARK   98  A    between atoms: _252  and  _255
REMARK   99  A    between atoms: _255  and  _256
REMARK  100  A    between atoms: _261  and  _263
REMARK  101  A    between atoms: _263  and  _264
REMARK  102  A    between atoms: _263  and  _266
REMARK  103  A    between atoms: _266  and  _267
REMARK  104  A    between atoms: _270  and  _272
REMARK  105  A    between atoms: _272  and  _273
REMARK  106  A    between atoms: _272  and  _275
REMARK  107  A    between atoms: _278  and  _280
REMARK  108  A    between atoms: _280  and  _281
REMARK  109  A    between atoms: _280  and  _283
REMARK  110  A    between atoms: _283  and  _284
REMARK  111  A    between atoms: _287  and  _289
REMARK  112  A    between atoms: _289  and  _290
REMARK  113  A    between atoms: _289  and  _292
REMARK  114  A    between atoms: _292  and  _293
REMARK  115  A    between atoms: _293  and  _294
REMARK  116  A    between atoms: _297  and  _299
REMARK  117  A    between atoms: _299  and  _300
REMARK  118  A    between atoms: _303  and  _305
REMARK  119  A    between atoms: _305  and  _306
REMARK  120  A    between atoms: _305  and  _308
REMARK  121  A    between atoms: _308  and  _309
REMARK  122  A    between atoms: _312  and  _314
REMARK  123  A    between atoms: _314  and  _315
REMARK  124  A    between atoms: _314  and  _317
REMARK  125  A    between atoms: _317  and  _318
REMARK  126  A    between atoms: _318  and  _319
REMARK  127  A    between atoms: _322  and  _324
REMARK  128  A    between atoms: _324  and  _325
REMARK  129  A    between atoms: _324  and  _327
REMARK  130  A    between atoms: _327  and  _328
REMARK  131  A    between atoms: _333  and  _335
REMARK  132  A    between atoms: _335  and  _336
REMARK  133  A    between atoms: _338  and  _340
REMARK  134  A    between atoms: _340  and  _341
REMARK  135  A    between atoms: _340  and  _343
REMARK  136  A    between atoms: _346  and  _348
REMARK  137  A    between atoms: _348  and  _349
REMARK  138  A    between atoms: _352  and  _354
REMARK  139  A    between atoms: _354  and  _355
REMARK  140  A    between atoms: _354  and  _357
REMARK  141  A    between atoms: _357  and  _358
REMARK  142  A    between atoms: _363  and  _365
REMARK  143  A    between atoms: _365  and  _366
REMARK  144  A    between atoms: _365  and  _368
REMARK  145  A    between atoms: _368  and  _369
REMARK  146  A    between atoms: _369  and  _370
REMARK  147  A    between atoms: _370  and  _371
REMARK  148  A    between atoms: _371  and  _372
REMARK  149  A    between atoms: _376  and  _378
REMARK  150  A    between atoms: _378  and  _379
REMARK  151  A    between atoms: _378  and  _381
REMARK  152  A    between atoms: _381  and  _382
REMARK  153  A    between atoms: _385  and  _387
REMARK  154  A    between atoms: _387  and  _388
REMARK  155  A    between atoms: _387  and  _390
REMARK  156  A    between atoms: _390  and  _391
REMARK  157  A    between atoms: _396  and  _398
REMARK  158  A    between atoms: _398  and  _399
REMARK  159  A    between atoms: _401  and  _403
REMARK  160  A    between atoms: _403  and  _404
REMARK  161  A    between atoms: _403  and  _406
REMARK  162  A    between atoms: _406  and  _407
REMARK  163  A    between atoms: _407  and  _408
REMARK  164  A    between atoms: _408  and  _409
REMARK  165  A    between atoms: _409  and  _410
REMARK  166  A    between atoms: _414  and  _416
REMARK  167  A    between atoms: _416  and  _417
REMARK  168  A    between atoms: _416  and  _419
REMARK  169  A    between atoms: _419  and  _420
REMARK  170  A    between atoms: _420  and  _421
REMARK  171  A    between atoms: _421  and  _422
REMARK  172  A    between atoms: _431  and  _433
REMARK  173  A    between atoms: _433  and  _434
REMARK  174  A    between atoms: _433  and  _436
REMARK  175  A    between atoms: _436  and  _437
REMARK  176  A    between atoms: _442  and  _444
REMARK  177  A    between atoms: _444  and  _445
REMARK  178  A    between atoms: _444  and  _447
REMARK  179  A    between atoms: _447  and  _448
REMARK  180  A    between atoms: _453  and  _454
REMARK  181  A    between atoms: _456  and  _458
REMARK  182  A    between atoms: _458  and  _459
REMARK  183  A    between atoms: _458  and  _461
REMARK  184  A    between atoms: _461  and  _462
REMARK  185  A    between atoms: _462  and  _463
REMARK  186  A    between atoms: _463  and  _464
REMARK  187  A    between atoms: _464  and  _465
REMARK  188  A    between atoms: _469  and  _471
REMARK  189  A    between atoms: _471  and  _472
REMARK  190  A    between atoms: _471  and  _474
REMARK  191  A    between atoms: _474  and  _475
REMARK  192  A    between atoms: _477  and  _479
REMARK  193  A    between atoms: _479  and  _480
REMARK  194  A    between atoms: _479  and  _482
REMARK  195  A    between atoms: _482  and  _483
REMARK  196  A    between atoms: _486  and  _488
REMARK  197  A    between atoms: _488  and  _489
REMARK  198  A    between atoms: _488  and  _491
REMARK  199  A    between atoms: _491  and  _492
REMARK  200  A    between atoms: _492  and  _493
REMARK  201  A    between atoms: _496  and  _498
REMARK  202  A    between atoms: _498  and  _499
REMARK  203  A    between atoms: _502  and  _504
REMARK  204  A    between atoms: _504  and  _505
REMARK  205  A    between atoms: _504  and  _507
REMARK  206  A    between atoms: _507  and  _508
REMARK  207  A    between atoms: _510  and  _512
REMARK  208  A    between atoms: _512  and  _513
REMARK  209  A    between atoms: _515  and  _517
REMARK  210  A    between atoms: _517  and  _518
REMARK  211  A    between atoms: _517  and  _520
REMARK  212  A    between atoms: _520  and  _521
REMARK  213  A    between atoms: _524  and  _526
REMARK  214  A    between atoms: _526  and  _527
REMARK  215  A    between atoms: _529  and  _531
REMARK  216  A    between atoms: _531  and  _532
REMARK  217  A    between atoms: _531  and  _534
REMARK  218  A    between atoms: _534  and  _535
REMARK  219  A    between atoms: _540  and  _542
REMARK  220  A    between atoms: _542  and  _543
REMARK  221  A    between atoms: _542  and  _545
REMARK  222  A    between atoms: _545  and  _546
REMARK  223  A    between atoms: _546  and  _547
REMARK  224  A    between atoms: _554  and  _555
REMARK  225  A    between atoms: _555  and  _571
REMARK  226  A    between atoms: _556  and  _558
REMARK  227  A    between atoms: _558  and  _559
REMARK  228  A    between atoms: _559  and  _560
REMARK  229  A    between atoms: _564  and  _566
REMARK  230  A    between atoms: _566  and  _567
REMARK  231  A    between atoms: _566  and  _574
REMARK  232  A    between atoms: _567  and  _568
REMARK  233  A    between atoms: _568  and  _569
REMARK  234  A    between atoms: _569  and  _570
REMARK  235  A    between atoms: _570  and  _571
REMARK  236  A    between atoms: _576  and  _578
REMARK  237  A    between atoms: _578  and  _579
REMARK  238  A    between atoms: _578  and  _581
REMARK  239  A    between atoms: _581  and  _582
REMARK  240  A    between atoms: _585  and  _587
REMARK  241  A    between atoms: _587  and  _588
REMARK  242  A    between atoms: _590  and  _592
REMARK  243  A    between atoms: _592  and  _593
REMARK  244  A    between atoms: _596  and  _598
REMARK  245  A    between atoms: _598  and  _599
REMARK  246  A    between atoms: _598  and  _601
REMARK  247  A    between atoms: _601  and  _602
REMARK  248  A    between atoms: _607  and  _608
REMARK                            x       y       z     vdW  Elec       q    Type
REMARK                         _______ _______ _______ _____ _____    ______ ____
ROOT
ATOM      1  O   HOH     1      28.178  27.503  27.690  0.00  0.00    +0.000 OA
ENDROOT
TORSDOF 0
REMARK  Name = ../refined-set-2016/4el5/4el5_pocket.pdb
REMARK  248 active torsions:
REMARK  status: ('A' for Active; 'I' for Inactive)
REMARK    1  A    between atoms: _1  and  _3
REMARK    2  A    between atoms: _3  and  _4
REMARK    3  A    between atoms: _3  and  _6
REMARK    4  A    between atoms: _6  and  _7
REMARK    5  A    between atoms: _12  and  _13
REMARK    6  A    between atoms: _15  and  _17
REMARK    7  A    between atoms: _17  and  _18
REMARK    8  A    between atoms: _17  and  _20
REMARK    9  A    between atoms: _20  and  _21
REMARK   10  A    between atoms: _21  and  _22
REMARK   11  A    between atoms: _25  and  _27
REMARK   12  A    between atoms: _27  and  _28
REMARK   13  A    between atoms: _27  and  _30
REMARK   14  A    between atoms: _30  and  _31
REMARK   15  A    between atoms: _36  and  _38
REMARK   16  A    between atoms: _38  and  _39
REMARK   17  A    between atoms: _41  and  _43
REMARK   18  A    between atoms: _43  and  _44
REMARK   19  A    between atoms: _46  and  _48
REMARK   20  A    between atoms: _48  and  _49
REMARK   21  A    between atoms: _48  and  _51
REMARK   22  A    between atoms: _51  and  _52
REMARK   23  A    between atoms: _55  and  _57
REMARK   24  A    between atoms: _57  and  _58
REMARK   25  A    between atoms: _60  and  _62
REMARK   26  A    between atoms: _62  and  _63
REMARK   27  A    between atoms: _62  and  _65
REMARK   28  A    between atoms: _65  and  _66
REMARK   29  A    between atoms: _66  and  _67
REMARK   30  A    between atoms: _67  and  _68
REMARK   31  A    between atoms: _77  and  _79
REMARK   32  A    between atoms: _79  and  _80
REMARK   33  A    between atoms: _79  and  _82
REMARK   34  A    between atoms: _82  and  _83
REMARK   35  A    between atoms: _86  and  _88
REMARK   36  A    between atoms: _88  and  _89
REMARK   37  A    between atoms: _92  and  _94
REMARK   38  A    between atoms: _94  and  _95
REMARK   39  A    between atoms: _94  and  _97
REMARK   40  A    between atoms: _97  and  _98
REMARK   41  A    between atoms: _104  and  _106
REMARK   42  A    between atoms: _106  and  _107
REMARK   43  A    between atoms: _106  and  _109
REMARK   44  A    between atoms: _109  and  _110
REMARK   45  A    between atoms: _115  and  _117
REMARK   46  A    between atoms: _117  and  _118
REMARK   47  A    between atoms: _117  and  _120
REMARK   48  A    between atoms: _120  and  _121
REMARK   49  A    between atoms: _124  and  _126
REMARK   50  A    between atoms: _126  and  _127
REMARK   51  A    between atoms: _126  and  _129
REMARK   52  A    between atoms: _129  and  _130
REMARK   53  A    between atoms: _135  and  _137
REMARK   54  A    between atoms: _137  and  _138
REMARK   55  A    between atoms: _137  and  _140
REMARK   56  A    between atoms: _140  and  _141
REMARK   57  A    between atoms: _147  and  _149
REMARK   58  A    between atoms: _149  and  _150
REMARK   59  A    between atoms: _149  and  _152
REMARK   60  A    between atoms: _152  and  _153
REMARK   61  A    between atoms: _159  and  _161
REMARK   62  A    between atoms: _161  and  _162
REMARK   63  A    between atoms: _161  and  _164
REMARK   64  A    between atoms: _164  and  _165
REMARK   65  A    between atoms: _165  and  _166
REMARK   66  A    between atoms: _166  and  _167
REMARK   67  A    between atoms: _176  and  _178
REMARK   68  A    between atoms: _178  and  _179
REMARK   69  A    between atoms: _178  and  _181
REMARK   70  A    between atoms: _181  and  _182
REMARK   71  A    between atoms: _187  and  _189
REMARK   72  A    between atoms: _189  and  _190
REMARK   73  A    between atoms: _189  and  _192
REMARK   74  A    between atoms: _192  and  _193
REMARK   75  A    between atoms: _196  and  _198
REMARK   76  A    between atoms: _198  and  _199
REMARK   77  A    between atoms: _198  and  _201
REMARK   78  A    between atoms: _201  and  _202
REMARK   79  A    between atoms: _205  and  _207
REMARK   80  A    between atoms: _207  and  _208
REMARK   81  A    between atoms: _207  and  _210
REMARK   82  A    between atoms: _210  and  _211
REMARK   83  A    between atoms: _216  and  _218
REMARK   84  A    between atoms: _218  and  _219
REMARK   85  A    between atoms: _218  and  _221
REMARK   86  A    between atoms: _221  and  _222
REMARK   87  A    between atoms: _227  and  _228
REMARK   88  A    between atoms: _230  and  _232
REMARK   89  A    between atoms: _232  and  _233
REMARK   90  A    between atoms: _232  and  _235
REMARK   91  A    between atoms: _235  and  _236
REMARK   92  A    between atoms: _239  and  _241
REMARK   93  A    between atoms: _241  and  _242
REMARK   94  A    between atoms: _241  and  _244
REMARK   95  A    between atoms: _244  and  _245
REMARK   96  A    between atoms: _250  and  _252
REMARK   97  A    between atoms: _252  and  _253
REMARK   98  A    between atoms: _252  and  _255
REMARK   99  A    between atoms: _255  and  _256
REMARK  100  A    between atoms: _261  and  _263
REMARK  101  A    between atoms: _263  and  _264
REMARK  102  A    between atoms: _263  and  _266
REMARK  103  A    between atoms: _266  and  _267
REMARK  104  A    between atoms: _270  and  _272
REMARK  105  A    between atoms: _272  and  _273
REMARK  106  A    between atoms: _272  and  _275
REMARK  107  A    between atoms: _278  and  _280
REMARK  108  A    between atoms: _280  and  _281
REMARK  109  A    between atoms: _280  and  _283
REMARK  110  A    between atoms: _283  and  _284
REMARK  111  A    between atoms: _287  and  _289
REMARK  112  A    between atoms: _289  and  _290
REMARK  113  A    between atoms: _289  and  _292
REMARK  114  A    between atoms: _292  and  _293
REMARK  115  A    between atoms: _293  and  _294
REMARK  116  A    between atoms: _297  and  _299
REMARK  117  A    between atoms: _299  and  _300
REMARK  118  A    between atoms: _303  and  _305
REMARK  119  A    between atoms: _305  and  _306
REMARK  120  A    between atoms: _305  and  _308
REMARK  121  A    between atoms: _308  and  _309
REMARK  122  A    between atoms: _312  and  _314
REMARK  123  A    between atoms: _314  and  _315
REMARK  124  A    between atoms: _314  and  _317
REMARK  125  A    between atoms: _317  and  _318
REMARK  126  A    between atoms: _318  and  _319
REMARK  127  A    between atoms: _322  and  _324
REMARK  128  A    between atoms: _324  and  _325
REMARK  129  A    between atoms: _324  and  _327
REMARK  130  A    between atoms: _327  and  _328
REMARK  131  A    between atoms: _333  and  _335
REMARK  132  A    between atoms: _335  and  _336
REMARK  133  A    between atoms: _338  and  _340
REMARK  134  A    between atoms: _340  and  _341
REMARK  135  A    between atoms: _340  and  _343
REMARK  136  A    between atoms: _346  and  _348
REMARK  137  A    between atoms: _348  and  _349
REMARK  138  A    between atoms: _352  and  _354
REMARK  139  A    between atoms: _354  and  _355
REMARK  140  A    between atoms: _354  and  _357
REMARK  141  A    between atoms: _357  and  _358
REMARK  142  A    between atoms: _363  and  _365
REMARK  143  A    between atoms: _365  and  _366
REMARK  144  A    between atoms: _365  and  _368
REMARK  145  A    between atoms: _368  and  _369
REMARK  146  A    between atoms: _369  and  _370
REMARK  147  A    between atoms: _370  and  _371
REMARK  148  A    between atoms: _371  and  _372
REMARK  149  A    between atoms: _376  and  _378
REMARK  150  A    between atoms: _378  and  _379
REMARK  151  A    between atoms: _378  and  _381
REMARK  152  A    between atoms: _381  and  _382
REMARK  153  A    between atoms: _385  and  _387
REMARK  154  A    between atoms: _387  and  _388
REMARK  155  A    between atoms: _387  and  _390
REMARK  156  A    between atoms: _390  and  _391
REMARK  157  A    between atoms: _396  and  _398
REMARK  158  A    between atoms: _398  and  _399
REMARK  159  A    between atoms: _401  and  _403
REMARK  160  A    between atoms: _403  and  _404
REMARK  161  A    between atoms: _403  and  _406
REMARK  162  A    between atoms: _406  and  _407
REMARK  163  A    between atoms: _407  and  _408
REMARK  164  A    between atoms: _408  and  _409
REMARK  165  A    between atoms: _409  and  _410
REMARK  166  A    between atoms: _414  and  _416
REMARK  167  A    between atoms: _416  and  _417
REMARK  168  A    between atoms: _416  and  _419
REMARK  169  A    between atoms: _419  and  _420
REMARK  170  A    between atoms: _420  and  _421
REMARK  171  A    between atoms: _421  and  _422
REMARK  172  A    between atoms: _431  and  _433
REMARK  173  A    between atoms: _433  and  _434
REMARK  174  A    between atoms: _433  and  _436
REMARK  175  A    between atoms: _436  and  _437
REMARK  176  A    between atoms: _442  and  _444
REMARK  177  A    between atoms: _444  and  _445
REMARK  178  A    between atoms: _444  and  _447
REMARK  179  A    between atoms: _447  and  _448
REMARK  180  A    between atoms: _453  and  _454
REMARK  181  A    between atoms: _456  and  _458
REMARK  182  A    between atoms: _458  and  _459
REMARK  183  A    between atoms: _458  and  _461
REMARK  184  A    between atoms: _461  and  _462
REMARK  185  A    between atoms: _462  and  _463
REMARK  186  A    between atoms: _463  and  _464
REMARK  187  A    between atoms: _464  and  _465
REMARK  188  A    between atoms: _469  and  _471
REMARK  189  A    between atoms: _471  and  _472
REMARK  190  A    between atoms: _471  and  _474
REMARK  191  A    between atoms: _474  and  _475
REMARK  192  A    between atoms: _477  and  _479
REMARK  193  A    between atoms: _479  and  _480
REMARK  194  A    between atoms: _479  and  _482
REMARK  195  A    between atoms: _482  and  _483
REMARK  196  A    between atoms: _486  and  _488
REMARK  197  A    between atoms: _488  and  _489
REMARK  198  A    between atoms: _488  and  _491
REMARK  199  A    between atoms: _491  and  _492
REMARK  200  A    between atoms: _492  and  _493
REMARK  201  A    between atoms: _496  and  _498
REMARK  202  A    between atoms: _498  and  _499
REMARK  203  A    between atoms: _502  and  _504
REMARK  204  A    between atoms: _504  and  _505
REMARK  205  A    between atoms: _504  and  _507
REMARK  206  A    between atoms: _507  and  _508
REMARK  207  A    between atoms: _510  and  _512
REMARK  208  A    between atoms: _512  and  _513
REMARK  209  A    between atoms: _515  and  _517
REMARK  210  A    between atoms: _517  and  _518
REMARK  211  A    between atoms: _517  and  _520
REMARK  212  A    between atoms: _520  and  _521
REMARK  213  A    between atoms: _524  and  _526
REMARK  214  A    between atoms: _526  and  _527
REMARK  215  A    between atoms: _529  and  _531
REMARK  216  A    between atoms: _531  and  _532
REMARK  217  A    between atoms: _531  and  _534
REMARK  218  A    between atoms: _534  and  _535
REMARK  219  A    between atoms: _540  and  _542
REMARK  220  A    between atoms: _542  and  _543
REMARK  221  A    between atoms: _542  and  _545
REMARK  222  A    between atoms: _545  and  _546
REMARK  223  A    between atoms: _546  and  _547
REMARK  224  A    between atoms: _554  and  _555
REMARK  225  A    between atoms: _555  and  _571
REMARK  226  A    between atoms: _556  and  _558
REMARK  227  A    between atoms: _558  and  _559
REMARK  228  A    between atoms: _559  and  _560
REMARK  229  A    between atoms: _564  and  _566
REMARK  230  A    between atoms: _566  and  _567
REMARK  231  A    between atoms: _566  and  _574
REMARK  232  A    between atoms: _567  and  _568
REMARK  233  A    between atoms: _568  and  _569
REMARK  234  A    between atoms: _569  and  _570
REMARK  235  A    between atoms: _570  and  _571
REMARK  236  A    between atoms: _576  and  _578
REMARK  237  A    between atoms: _578  and  _579
REMARK  238  A    between atoms: _578  and  _581
REMARK  239  A    between atoms: _581  and  _582
REMARK  240  A    between atoms: _585  and  _587
REMARK  241  A    between atoms: _587  and  _588
REMARK  242  A    between atoms: _590  and  _592
REMARK  243  A    between atoms: _592  and  _593
REMARK  244  A    between atoms: _596  and  _598
REMARK  245  A    between atoms: _598  and  _599
REMARK  246  A    between atoms: _598  and  _601
REMARK  247  A    between atoms: _601  and  _602
REMARK  248  A    between atoms: _607  and  _608
REMARK                            x       y       z     vdW  Elec       q    Type
REMARK                         _______ _______ _______ _____ _____    ______ ____
ROOT
ATOM      1  O   HOH     1      26.912  23.408  21.763  0.00  0.00    +0.000 OA
ENDROOT
TORSDOF 0
REMARK  Name = ../refined-set-2016/4el5/4el5_pocket.pdb
REMARK  248 active torsions:
REMARK  status: ('A' for Active; 'I' for Inactive)
REMARK    1  A    between atoms: _1  and  _3
REMARK    2  A    between atoms: _3  and  _4
REMARK    3  A    between atoms: _3  and  _6
REMARK    4  A    between atoms: _6  and  _7
REMARK    5  A    between atoms: _12  and  _13
REMARK    6  A    between atoms: _15  and  _17
REMARK    7  A    between atoms: _17  and  _18
REMARK    8  A    between atoms: _17  and  _20
REMARK    9  A    between atoms: _20  and  _21
REMARK   10  A    between atoms: _21  and  _22
REMARK   11  A    between atoms: _25  and  _27
REMARK   12  A    between atoms: _27  and  _28
REMARK   13  A    between atoms: _27  and  _30
REMARK   14  A    between atoms: _30  and  _31
REMARK   15  A    between atoms: _36  and  _38
REMARK   16  A    between atoms: _38  and  _39
REMARK   17  A    between atoms: _41  and  _43
REMARK   18  A    between atoms: _43  and  _44
REMARK   19  A    between atoms: _46  and  _48
REMARK   20  A    between atoms: _48  and  _49
REMARK   21  A    between atoms: _48  and  _51
REMARK   22  A    between atoms: _51  and  _52
REMARK   23  A    between atoms: _55  and  _57
REMARK   24  A    between atoms: _57  and  _58
REMARK   25  A    between atoms: _60  and  _62
REMARK   26  A    between atoms: _62  and  _63
REMARK   27  A    between atoms: _62  and  _65
REMARK   28  A    between atoms: _65  and  _66
REMARK   29  A    between atoms: _66  and  _67
REMARK   30  A    between atoms: _67  and  _68
REMARK   31  A    between atoms: _77  and  _79
REMARK   32  A    between atoms: _79  and  _80
REMARK   33  A    between atoms: _79  and  _82
REMARK   34  A    between atoms: _82  and  _83
REMARK   35  A    between atoms: _86  and  _88
REMARK   36  A    between atoms: _88  and  _89
REMARK   37  A    between atoms: _92  and  _94
REMARK   38  A    between atoms: _94  and  _95
REMARK   39  A    between atoms: _94  and  _97
REMARK   40  A    between atoms: _97  and  _98
REMARK   41  A    between atoms: _104  and  _106
REMARK   42  A    between atoms: _106  and  _107
REMARK   43  A    between atoms: _106  and  _109
REMARK   44  A    between atoms: _109  and  _110
REMARK   45  A    between atoms: _115  and  _117
REMARK   46  A    between atoms: _117  and  _118
REMARK   47  A    between atoms: _117  and  _120
REMARK   48  A    between atoms: _120  and  _121
REMARK   49  A    between atoms: _124  and  _126
REMARK   50  A    between atoms: _126  and  _127
REMARK   51  A    between atoms: _126  and  _129
REMARK   52  A    between atoms: _129  and  _130
REMARK   53  A    between atoms: _135  and  _137
REMARK   54  A    between atoms: _137  and  _138
REMARK   55  A    between atoms: _137  and  _140
REMARK   56  A    between atoms: _140  and  _141
REMARK   57  A    between atoms: _147  and  _149
REMARK   58  A    between atoms: _149  and  _150
REMARK   59  A    between atoms: _149  and  _152
REMARK   60  A    between atoms: _152  and  _153
REMARK   61  A    between atoms: _159  and  _161
REMARK   62  A    between atoms: _161  and  _162
REMARK   63  A    between atoms: _161  and  _164
REMARK   64  A    between atoms: _164  and  _165
REMARK   65  A    between atoms: _165  and  _166
REMARK   66  A    between atoms: _166  and  _167
REMARK   67  A    between atoms: _176  and  _178
REMARK   68  A    between atoms: _178  and  _179
REMARK   69  A    between atoms: _178  and  _181
REMARK   70  A    between atoms: _181  and  _182
REMARK   71  A    between atoms: _187  and  _189
REMARK   72  A    between atoms: _189  and  _190
REMARK   73  A    between atoms: _189  and  _192
REMARK   74  A    between atoms: _192  and  _193
REMARK   75  A    between atoms: _196  and  _198
REMARK   76  A    between atoms: _198  and  _199
REMARK   77  A    between atoms: _198  and  _201
REMARK   78  A    between atoms: _201  and  _202
REMARK   79  A    between atoms: _205  and  _207
REMARK   80  A    between atoms: _207  and  _208
REMARK   81  A    between atoms: _207  and  _210
REMARK   82  A    between atoms: _210  and  _211
REMARK   83  A    between atoms: _216  and  _218
REMARK   84  A    between atoms: _218  and  _219
REMARK   85  A    between atoms: _218  and  _221
REMARK   86  A    between atoms: _221  and  _222
REMARK   87  A    between atoms: _227  and  _228
REMARK   88  A    between atoms: _230  and  _232
REMARK   89  A    between atoms: _232  and  _233
REMARK   90  A    between atoms: _232  and  _235
REMARK   91  A    between atoms: _235  and  _236
REMARK   92  A    between atoms: _239  and  _241
REMARK   93  A    between atoms: _241  and  _242
REMARK   94  A    between atoms: _241  and  _244
REMARK   95  A    between atoms: _244  and  _245
REMARK   96  A    between atoms: _250  and  _252
REMARK   97  A    between atoms: _252  and  _253
REMARK   98  A    between atoms: _252  and  _255
REMARK   99  A    between atoms: _255  and  _256
REMARK  100  A    between atoms: _261  and  _263
REMARK  101  A    between atoms: _263  and  _264
REMARK  102  A    between atoms: _263  and  _266
REMARK  103  A    between atoms: _266  and  _267
REMARK  104  A    between atoms: _270  and  _272
REMARK  105  A    between atoms: _272  and  _273
REMARK  106  A    between atoms: _272  and  _275
REMARK  107  A    between atoms: _278  and  _280
REMARK  108  A    between atoms: _280  and  _281
REMARK  109  A    between atoms: _280  and  _283
REMARK  110  A    between atoms: _283  and  _284
REMARK  111  A    between atoms: _287  and  _289
REMARK  112  A    between atoms: _289  and  _290
REMARK  113  A    between atoms: _289  and  _292
REMARK  114  A    between atoms: _292  and  _293
REMARK  115  A    between atoms: _293  and  _294
REMARK  116  A    between atoms: _297  and  _299
REMARK  117  A    between atoms: _299  and  _300
REMARK  118  A    between atoms: _303  and  _305
REMARK  119  A    between atoms: _305  and  _306
REMARK  120  A    between atoms: _305  and  _308
REMARK  121  A    between atoms: _308  and  _309
REMARK  122  A    between atoms: _312  and  _314
REMARK  123  A    between atoms: _314  and  _315
REMARK  124  A    between atoms: _314  and  _317
REMARK  125  A    between atoms: _317  and  _318
REMARK  126  A    between atoms: _318  and  _319
REMARK  127  A    between atoms: _322  and  _324
REMARK  128  A    between atoms: _324  and  _325
REMARK  129  A    between atoms: _324  and  _327
REMARK  130  A    between atoms: _327  and  _328
REMARK  131  A    between atoms: _333  and  _335
REMARK  132  A    between atoms: _335  and  _336
REMARK  133  A    between atoms: _338  and  _340
REMARK  134  A    between atoms: _340  and  _341
REMARK  135  A    between atoms: _340  and  _343
REMARK  136  A    between atoms: _346  and  _348
REMARK  137  A    between atoms: _348  and  _349
REMARK  138  A    between atoms: _352  and  _354
REMARK  139  A    between atoms: _354  and  _355
REMARK  140  A    between atoms: _354  and  _357
REMARK  141  A    between atoms: _357  and  _358
REMARK  142  A    between atoms: _363  and  _365
REMARK  143  A    between atoms: _365  and  _366
REMARK  144  A    between atoms: _365  and  _368
REMARK  145  A    between atoms: _368  and  _369
REMARK  146  A    between atoms: _369  and  _370
REMARK  147  A    between atoms: _370  and  _371
REMARK  148  A    between atoms: _371  and  _372
REMARK  149  A    between atoms: _376  and  _378
REMARK  150  A    between atoms: _378  and  _379
REMARK  151  A    between atoms: _378  and  _381
REMARK  152  A    between atoms: _381  and  _382
REMARK  153  A    between atoms: _385  and  _387
REMARK  154  A    between atoms: _387  and  _388
REMARK  155  A    between atoms: _387  and  _390
REMARK  156  A    between atoms: _390  and  _391
REMARK  157  A    between atoms: _396  and  _398
REMARK  158  A    between atoms: _398  and  _399
REMARK  159  A    between atoms: _401  and  _403
REMARK  160  A    between atoms: _403  and  _404
REMARK  161  A    between atoms: _403  and  _406
REMARK  162  A    between atoms: _406  and  _407
REMARK  163  A    between atoms: _407  and  _408
REMARK  164  A    between atoms: _408  and  _409
REMARK  165  A    between atoms: _409  and  _410
REMARK  166  A    between atoms: _414  and  _416
REMARK  167  A    between atoms: _416  and  _417
REMARK  168  A    between atoms: _416  and  _419
REMARK  169  A    between atoms: _419  and  _420
REMARK  170  A    between atoms: _420  and  _421
REMARK  171  A    between atoms: _421  and  _422
REMARK  172  A    between atoms: _431  and  _433
REMARK  173  A    between atoms: _433  and  _434
REMARK  174  A    between atoms: _433  and  _436
REMARK  175  A    between atoms: _436  and  _437
REMARK  176  A    between atoms: _442  and  _444
REMARK  177  A    between atoms: _444  and  _445
REMARK  178  A    between atoms: _444  and  _447
REMARK  179  A    between atoms: _447  and  _448
REMARK  180  A    between atoms: _453  and  _454
REMARK  181  A    between atoms: _456  and  _458
REMARK  182  A    between atoms: _458  and  _459
REMARK  183  A    between atoms: _458  and  _461
REMARK  184  A    between atoms: _461  and  _462
REMARK  185  A    between atoms: _462  and  _463
REMARK  186  A    between atoms: _463  and  _464
REMARK  187  A    between atoms: _464  and  _465
REMARK  188  A    between atoms: _469  and  _471
REMARK  189  A    between atoms: _471  and  _472
REMARK  190  A    between atoms: _471  and  _474
REMARK  191  A    between atoms: _474  and  _475
REMARK  192  A    between atoms: _477  and  _479
REMARK  193  A    between atoms: _479  and  _480
REMARK  194  A    between atoms: _479  and  _482
REMARK  195  A    between atoms: _482  and  _483
REMARK  196  A    between atoms: _486  and  _488
REMARK  197  A    between atoms: _488  and  _489
REMARK  198  A    between atoms: _488  and  _491
REMARK  199  A    between atoms: _491  and  _492
REMARK  200  A    between atoms: _492  and  _493
REMARK  201  A    between atoms: _496  and  _498
REMARK  202  A    between atoms: _498  and  _499
REMARK  203  A    between atoms: _502  and  _504
REMARK  204  A    between atoms: _504  and  _505
REMARK  205  A    between atoms: _504  and  _507
REMARK  206  A    between atoms: _507  and  _508
REMARK  207  A    between atoms: _510  and  _512
REMARK  208  A    between atoms: _512  and  _513
REMARK  209  A    between atoms: _515  and  _517
REMARK  210  A    between atoms: _517  and  _518
REMARK  211  A    between atoms: _517  and  _520
REMARK  212  A    between atoms: _520  and  _521
REMARK  213  A    between atoms: _524  and  _526
REMARK  214  A    between atoms: _526  and  _527
REMARK  215  A    between atoms: _529  and  _531
REMARK  216  A    between atoms: _531  and  _532
REMARK  217  A    between atoms: _531  and  _534
REMARK  218  A    between atoms: _534  and  _535
REMARK  219  A    between atoms: _540  and  _542
REMARK  220  A    between atoms: _542  and  _543
REMARK  221  A    between atoms: _542  and  _545
REMARK  222  A    between atoms: _545  and  _546
REMARK  223  A    between atoms: _546  and  _547
REMARK  224  A    between atoms: _554  and  _555
REMARK  225  A    between atoms: _555  and  _571
REMARK  226  A    between atoms: _556  and  _558
REMARK  227  A    between atoms: _558  and  _559
REMARK  228  A    between atoms: _559  and  _560
REMARK  229  A    between atoms: _564  and  _566
REMARK  230  A    between atoms: _566  and  _567
REMARK  231  A    between atoms: _566  and  _574
REMARK  232  A    between atoms: _567  and  _568
REMARK  233  A    between atoms: _568  and  _569
REMARK  234  A    between atoms: _569  and  _570
REMARK  235  A    between atoms: _570  and  _571
REMARK  236  A    between atoms: _576  and  _578
REMARK  237  A    between atoms: _578  and  _579
REMARK  238  A    between atoms: _578  and  _581
REMARK  239  A    between atoms: _581  and  _582
REMARK  240  A    between atoms: _585  and  _587
REMARK  241  A    between atoms: _587  and  _588
REMARK  242  A    between atoms: _590  and  _592
REMARK  243  A    between atoms: _592  and  _593
REMARK  244  A    between atoms: _596  and  _598
REMARK  245  A    between atoms: _598  and  _599
REMARK  246  A    between atoms: _598  and  _601
REMARK  247  A    between atoms: _601  and  _602
REMARK  248  A    between atoms: _607  and  _608
REMARK                            x       y       z     vdW  Elec       q    Type
REMARK                         _______ _______ _______ _____ _____    ______ ____
ROOT
ATOM      1  O   HOH     1      35.354  12.604  31.112  0.00  0.00    +0.000 OA
ENDROOT
TORSDOF 0
REMARK  Name = ../refined-set-2016/4el5/4el5_pocket.pdb
REMARK  248 active torsions:
REMARK  status: ('A' for Active; 'I' for Inactive)
REMARK    1  A    between atoms: _1  and  _3
REMARK    2  A    between atoms: _3  and  _4
REMARK    3  A    between atoms: _3  and  _6
REMARK    4  A    between atoms: _6  and  _7
REMARK    5  A    between atoms: _12  and  _13
REMARK    6  A    between atoms: _15  and  _17
REMARK    7  A    between atoms: _17  and  _18
REMARK    8  A    between atoms: _17  and  _20
REMARK    9  A    between atoms: _20  and  _21
REMARK   10  A    between atoms: _21  and  _22
REMARK   11  A    between atoms: _25  and  _27
REMARK   12  A    between atoms: _27  and  _28
REMARK   13  A    between atoms: _27  and  _30
REMARK   14  A    between atoms: _30  and  _31
REMARK   15  A    between atoms: _36  and  _38
REMARK   16  A    between atoms: _38  and  _39
REMARK   17  A    between atoms: _41  and  _43
REMARK   18  A    between atoms: _43  and  _44
REMARK   19  A    between atoms: _46  and  _48
REMARK   20  A    between atoms: _48  and  _49
REMARK   21  A    between atoms: _48  and  _51
REMARK   22  A    between atoms: _51  and  _52
REMARK   23  A    between atoms: _55  and  _57
REMARK   24  A    between atoms: _57  and  _58
REMARK   25  A    between atoms: _60  and  _62
REMARK   26  A    between atoms: _62  and  _63
REMARK   27  A    between atoms: _62  and  _65
REMARK   28  A    between atoms: _65  and  _66
REMARK   29  A    between atoms: _66  and  _67
REMARK   30  A    between atoms: _67  and  _68
REMARK   31  A    between atoms: _77  and  _79
REMARK   32  A    between atoms: _79  and  _80
REMARK   33  A    between atoms: _79  and  _82
REMARK   34  A    between atoms: _82  and  _83
REMARK   35  A    between atoms: _86  and  _88
REMARK   36  A    between atoms: _88  and  _89
REMARK   37  A    between atoms: _92  and  _94
REMARK   38  A    between atoms: _94  and  _95
REMARK   39  A    between atoms: _94  and  _97
REMARK   40  A    between atoms: _97  and  _98
REMARK   41  A    between atoms: _104  and  _106
REMARK   42  A    between atoms: _106  and  _107
REMARK   43  A    between atoms: _106  and  _109
REMARK   44  A    between atoms: _109  and  _110
REMARK   45  A    between atoms: _115  and  _117
REMARK   46  A    between atoms: _117  and  _118
REMARK   47  A    between atoms: _117  and  _120
REMARK   48  A    between atoms: _120  and  _121
REMARK   49  A    between atoms: _124  and  _126
REMARK   50  A    between atoms: _126  and  _127
REMARK   51  A    between atoms: _126  and  _129
REMARK   52  A    between atoms: _129  and  _130
REMARK   53  A    between atoms: _135  and  _137
REMARK   54  A    between atoms: _137  and  _138
REMARK   55  A    between atoms: _137  and  _140
REMARK   56  A    between atoms: _140  and  _141
REMARK   57  A    between atoms: _147  and  _149
REMARK   58  A    between atoms: _149  and  _150
REMARK   59  A    between atoms: _149  and  _152
REMARK   60  A    between atoms: _152  and  _153
REMARK   61  A    between atoms: _159  and  _161
REMARK   62  A    between atoms: _161  and  _162
REMARK   63  A    between atoms: _161  and  _164
REMARK   64  A    between atoms: _164  and  _165
REMARK   65  A    between atoms: _165  and  _166
REMARK   66  A    between atoms: _166  and  _167
REMARK   67  A    between atoms: _176  and  _178
REMARK   68  A    between atoms: _178  and  _179
REMARK   69  A    between atoms: _178  and  _181
REMARK   70  A    between atoms: _181  and  _182
REMARK   71  A    between atoms: _187  and  _189
REMARK   72  A    between atoms: _189  and  _190
REMARK   73  A    between atoms: _189  and  _192
REMARK   74  A    between atoms: _192  and  _193
REMARK   75  A    between atoms: _196  and  _198
REMARK   76  A    between atoms: _198  and  _199
REMARK   77  A    between atoms: _198  and  _201
REMARK   78  A    between atoms: _201  and  _202
REMARK   79  A    between atoms: _205  and  _207
REMARK   80  A    between atoms: _207  and  _208
REMARK   81  A    between atoms: _207  and  _210
REMARK   82  A    between atoms: _210  and  _211
REMARK   83  A    between atoms: _216  and  _218
REMARK   84  A    between atoms: _218  and  _219
REMARK   85  A    between atoms: _218  and  _221
REMARK   86  A    between atoms: _221  and  _222
REMARK   87  A    between atoms: _227  and  _228
REMARK   88  A    between atoms: _230  and  _232
REMARK   89  A    between atoms: _232  and  _233
REMARK   90  A    between atoms: _232  and  _235
REMARK   91  A    between atoms: _235  and  _236
REMARK   92  A    between atoms: _239  and  _241
REMARK   93  A    between atoms: _241  and  _242
REMARK   94  A    between atoms: _241  and  _244
REMARK   95  A    between atoms: _244  and  _245
REMARK   96  A    between atoms: _250  and  _252
REMARK   97  A    between atoms: _252  and  _253
REMARK   98  A    between atoms: _252  and  _255
REMARK   99  A    between atoms: _255  and  _256
REMARK  100  A    between atoms: _261  and  _263
REMARK  101  A    between atoms: _263  and  _264
REMARK  102  A    between atoms: _263  and  _266
REMARK  103  A    between atoms: _266  and  _267
REMARK  104  A    between atoms: _270  and  _272
REMARK  105  A    between atoms: _272  and  _273
REMARK  106  A    between atoms: _272  and  _275
REMARK  107  A    between atoms: _278  and  _280
REMARK  108  A    between atoms: _280  and  _281
REMARK  109  A    between atoms: _280  and  _283
REMARK  110  A    between atoms: _283  and  _284
REMARK  111  A    between atoms: _287  and  _289
REMARK  112  A    between atoms: _289  and  _290
REMARK  113  A    between atoms: _289  and  _292
REMARK  114  A    between atoms: _292  and  _293
REMARK  115  A    between atoms: _293  and  _294
REMARK  116  A    between atoms: _297  and  _299
REMARK  117  A    between atoms: _299  and  _300
REMARK  118  A    between atoms: _303  and  _305
REMARK  119  A    between atoms: _305  and  _306
REMARK  120  A    between atoms: _305  and  _308
REMARK  121  A    between atoms: _308  and  _309
REMARK  122  A    between atoms: _312  and  _314
REMARK  123  A    between atoms: _314  and  _315
REMARK  124  A    between atoms: _314  and  _317
REMARK  125  A    between atoms: _317  and  _318
REMARK  126  A    between atoms: _318  and  _319
REMARK  127  A    between atoms: _322  and  _324
REMARK  128  A    between atoms: _324  and  _325
REMARK  129  A    between atoms: _324  and  _327
REMARK  130  A    between atoms: _327  and  _328
REMARK  131  A    between atoms: _333  and  _335
REMARK  132  A    between atoms: _335  and  _336
REMARK  133  A    between atoms: _338  and  _340
REMARK  134  A    between atoms: _340  and  _341
REMARK  135  A    between atoms: _340  and  _343
REMARK  136  A    between atoms: _346  and  _348
REMARK  137  A    between atoms: _348  and  _349
REMARK  138  A    between atoms: _352  and  _354
REMARK  139  A    between atoms: _354  and  _355
REMARK  140  A    between atoms: _354  and  _357
REMARK  141  A    between atoms: _357  and  _358
REMARK  142  A    between atoms: _363  and  _365
REMARK  143  A    between atoms: _365  and  _366
REMARK  144  A    between atoms: _365  and  _368
REMARK  145  A    between atoms: _368  and  _369
REMARK  146  A    between atoms: _369  and  _370
REMARK  147  A    between atoms: _370  and  _371
REMARK  148  A    between atoms: _371  and  _372
REMARK  149  A    between atoms: _376  and  _378
REMARK  150  A    between atoms: _378  and  _379
REMARK  151  A    between atoms: _378  and  _381
REMARK  152  A    between atoms: _381  and  _382
REMARK  153  A    between atoms: _385  and  _387
REMARK  154  A    between atoms: _387  and  _388
REMARK  155  A    between atoms: _387  and  _390
REMARK  156  A    between atoms: _390  and  _391
REMARK  157  A    between atoms: _396  and  _398
REMARK  158  A    between atoms: _398  and  _399
REMARK  159  A    between atoms: _401  and  _403
REMARK  160  A    between atoms: _403  and  _404
REMARK  161  A    between atoms: _403  and  _406
REMARK  162  A    between atoms: _406  and  _407
REMARK  163  A    between atoms: _407  and  _408
REMARK  164  A    between atoms: _408  and  _409
REMARK  165  A    between atoms: _409  and  _410
REMARK  166  A    between atoms: _414  and  _416
REMARK  167  A    between atoms: _416  and  _417
REMARK  168  A    between atoms: _416  and  _419
REMARK  169  A    between atoms: _419  and  _420
REMARK  170  A    between atoms: _420  and  _421
REMARK  171  A    between atoms: _421  and  _422
REMARK  172  A    between atoms: _431  and  _433
REMARK  173  A    between atoms: _433  and  _434
REMARK  174  A    between atoms: _433  and  _436
REMARK  175  A    between atoms: _436  and  _437
REMARK  176  A    between atoms: _442  and  _444
REMARK  177  A    between atoms: _444  and  _445
REMARK  178  A    between atoms: _444  and  _447
REMARK  179  A    between atoms: _447  and  _448
REMARK  180  A    between atoms: _453  and  _454
REMARK  181  A    between atoms: _456  and  _458
REMARK  182  A    between atoms: _458  and  _459
REMARK  183  A    between atoms: _458  and  _461
REMARK  184  A    between atoms: _461  and  _462
REMARK  185  A    between atoms: _462  and  _463
REMARK  186  A    between atoms: _463  and  _464
REMARK  187  A    between atoms: _464  and  _465
REMARK  188  A    between atoms: _469  and  _471
REMARK  189  A    between atoms: _471  and  _472
REMARK  190  A    between atoms: _471  and  _474
REMARK  191  A    between atoms: _474  and  _475
REMARK  192  A    between atoms: _477  and  _479
REMARK  193  A    between atoms: _479  and  _480
REMARK  194  A    between atoms: _479  and  _482
REMARK  195  A    between atoms: _482  and  _483
REMARK  196  A    between atoms: _486  and  _488
REMARK  197  A    between atoms: _488  and  _489
REMARK  198  A    between atoms: _488  and  _491
REMARK  199  A    between atoms: _491  and  _492
REMARK  200  A    between atoms: _492  and  _493
REMARK  201  A    between atoms: _496  and  _498
REMARK  202  A    between atoms: _498  and  _499
REMARK  203  A    between atoms: _502  and  _504
REMARK  204  A    between atoms: _504  and  _505
REMARK  205  A    between atoms: _504  and  _507
REMARK  206  A    between atoms: _507  and  _508
REMARK  207  A    between atoms: _510  and  _512
REMARK  208  A    between atoms: _512  and  _513
REMARK  209  A    between atoms: _515  and  _517
REMARK  210  A    between atoms: _517  and  _518
REMARK  211  A    between atoms: _517  and  _520
REMARK  212  A    between atoms: _520  and  _521
REMARK  213  A    between atoms: _524  and  _526
REMARK  214  A    between atoms: _526  and  _527
REMARK  215  A    between atoms: _529  and  _531
REMARK  216  A    between atoms: _531  and  _532
REMARK  217  A    between atoms: _531  and  _534
REMARK  218  A    between atoms: _534  and  _535
REMARK  219  A    between atoms: _540  and  _542
REMARK  220  A    between atoms: _542  and  _543
REMARK  221  A    between atoms: _542  and  _545
REMARK  222  A    between atoms: _545  and  _546
REMARK  223  A    between atoms: _546  and  _547
REMARK  224  A    between atoms: _554  and  _555
REMARK  225  A    between atoms: _555  and  _571
REMARK  226  A    between atoms: _556  and  _558
REMARK  227  A    between atoms: _558  and  _559
REMARK  228  A    between atoms: _559  and  _560
REMARK  229  A    between atoms: _564  and  _566
REMARK  230  A    between atoms: _566  and  _567
REMARK  231  A    between atoms: _566  and  _574
REMARK  232  A    between atoms: _567  and  _568
REMARK  233  A    between atoms: _568  and  _569
REMARK  234  A    between atoms: _569  and  _570
REMARK  235  A    between atoms: _570  and  _571
REMARK  236  A    between atoms: _576  and  _578
REMARK  237  A    between atoms: _578  and  _579
REMARK  238  A    between atoms: _578  and  _581
REMARK  239  A    between atoms: _581  and  _582
REMARK  240  A    between atoms: _585  and  _587
REMARK  241  A    between atoms: _587  and  _588
REMARK  242  A    between atoms: _590  and  _592
REMARK  243  A    between atoms: _592  and  _593
REMARK  244  A    between atoms: _596  and  _598
REMARK  245  A    between atoms: _598  and  _599
REMARK  246  A    between atoms: _598  and  _601
REMARK  247  A    between atoms: _601  and  _602
REMARK  248  A    between atoms: _607  and  _608
REMARK                            x       y       z     vdW  Elec       q    Type
REMARK                         _______ _______ _______ _____ _____    ______ ____
ROOT
ATOM      1  O   HOH     1      31.409  24.285  33.136  0.00  0.00    +0.000 OA
ENDROOT
TORSDOF 0
REMARK  Name = ../refined-set-2016/4el5/4el5_pocket.pdb
REMARK  248 active torsions:
REMARK  status: ('A' for Active; 'I' for Inactive)
REMARK    1  A    between atoms: _1  and  _3
REMARK    2  A    between atoms: _3  and  _4
REMARK    3  A    between atoms: _3  and  _6
REMARK    4  A    between atoms: _6  and  _7
REMARK    5  A    between atoms: _12  and  _13
REMARK    6  A    between atoms: _15  and  _17
REMARK    7  A    between atoms: _17  and  _18
REMARK    8  A    between atoms: _17  and  _20
REMARK    9  A    between atoms: _20  and  _21
REMARK   10  A    between atoms: _21  and  _22
REMARK   11  A    between atoms: _25  and  _27
REMARK   12  A    between atoms: _27  and  _28
REMARK   13  A    between atoms: _27  and  _30
REMARK   14  A    between atoms: _30  and  _31
REMARK   15  A    between atoms: _36  and  _38
REMARK   16  A    between atoms: _38  and  _39
REMARK   17  A    between atoms: _41  and  _43
REMARK   18  A    between atoms: _43  and  _44
REMARK   19  A    between atoms: _46  and  _48
REMARK   20  A    between atoms: _48  and  _49
REMARK   21  A    between atoms: _48  and  _51
REMARK   22  A    between atoms: _51  and  _52
REMARK   23  A    between atoms: _55  and  _57
REMARK   24  A    between atoms: _57  and  _58
REMARK   25  A    between atoms: _60  and  _62
REMARK   26  A    between atoms: _62  and  _63
REMARK   27  A    between atoms: _62  and  _65
REMARK   28  A    between atoms: _65  and  _66
REMARK   29  A    between atoms: _66  and  _67
REMARK   30  A    between atoms: _67  and  _68
REMARK   31  A    between atoms: _77  and  _79
REMARK   32  A    between atoms: _79  and  _80
REMARK   33  A    between atoms: _79  and  _82
REMARK   34  A    between atoms: _82  and  _83
REMARK   35  A    between atoms: _86  and  _88
REMARK   36  A    between atoms: _88  and  _89
REMARK   37  A    between atoms: _92  and  _94
REMARK   38  A    between atoms: _94  and  _95
REMARK   39  A    between atoms: _94  and  _97
REMARK   40  A    between atoms: _97  and  _98
REMARK   41  A    between atoms: _104  and  _106
REMARK   42  A    between atoms: _106  and  _107
REMARK   43  A    between atoms: _106  and  _109
REMARK   44  A    between atoms: _109  and  _110
REMARK   45  A    between atoms: _115  and  _117
REMARK   46  A    between atoms: _117  and  _118
REMARK   47  A    between atoms: _117  and  _120
REMARK   48  A    between atoms: _120  and  _121
REMARK   49  A    between atoms: _124  and  _126
REMARK   50  A    between atoms: _126  and  _127
REMARK   51  A    between atoms: _126  and  _129
REMARK   52  A    between atoms: _129  and  _130
REMARK   53  A    between atoms: _135  and  _137
REMARK   54  A    between atoms: _137  and  _138
REMARK   55  A    between atoms: _137  and  _140
REMARK   56  A    between atoms: _140  and  _141
REMARK   57  A    between atoms: _147  and  _149
REMARK   58  A    between atoms: _149  and  _150
REMARK   59  A    between atoms: _149  and  _152
REMARK   60  A    between atoms: _152  and  _153
REMARK   61  A    between atoms: _159  and  _161
REMARK   62  A    between atoms: _161  and  _162
REMARK   63  A    between atoms: _161  and  _164
REMARK   64  A    between atoms: _164  and  _165
REMARK   65  A    between atoms: _165  and  _166
REMARK   66  A    between atoms: _166  and  _167
REMARK   67  A    between atoms: _176  and  _178
REMARK   68  A    between atoms: _178  and  _179
REMARK   69  A    between atoms: _178  and  _181
REMARK   70  A    between atoms: _181  and  _182
REMARK   71  A    between atoms: _187  and  _189
REMARK   72  A    between atoms: _189  and  _190
REMARK   73  A    between atoms: _189  and  _192
REMARK   74  A    between atoms: _192  and  _193
REMARK   75  A    between atoms: _196  and  _198
REMARK   76  A    between atoms: _198  and  _199
REMARK   77  A    between atoms: _198  and  _201
REMARK   78  A    between atoms: _201  and  _202
REMARK   79  A    between atoms: _205  and  _207
REMARK   80  A    between atoms: _207  and  _208
REMARK   81  A    between atoms: _207  and  _210
REMARK   82  A    between atoms: _210  and  _211
REMARK   83  A    between atoms: _216  and  _218
REMARK   84  A    between atoms: _218  and  _219
REMARK   85  A    between atoms: _218  and  _221
REMARK   86  A    between atoms: _221  and  _222
REMARK   87  A    between atoms: _227  and  _228
REMARK   88  A    between atoms: _230  and  _232
REMARK   89  A    between atoms: _232  and  _233
REMARK   90  A    between atoms: _232  and  _235
REMARK   91  A    between atoms: _235  and  _236
REMARK   92  A    between atoms: _239  and  _241
REMARK   93  A    between atoms: _241  and  _242
REMARK   94  A    between atoms: _241  and  _244
REMARK   95  A    between atoms: _244  and  _245
REMARK   96  A    between atoms: _250  and  _252
REMARK   97  A    between atoms: _252  and  _253
REMARK   98  A    between atoms: _252  and  _255
REMARK   99  A    between atoms: _255  and  _256
REMARK  100  A    between atoms: _261  and  _263
REMARK  101  A    between atoms: _263  and  _264
REMARK  102  A    between atoms: _263  and  _266
REMARK  103  A    between atoms: _266  and  _267
REMARK  104  A    between atoms: _270  and  _272
REMARK  105  A    between atoms: _272  and  _273
REMARK  106  A    between atoms: _272  and  _275
REMARK  107  A    between atoms: _278  and  _280
REMARK  108  A    between atoms: _280  and  _281
REMARK  109  A    between atoms: _280  and  _283
REMARK  110  A    between atoms: _283  and  _284
REMARK  111  A    between atoms: _287  and  _289
REMARK  112  A    between atoms: _289  and  _290
REMARK  113  A    between atoms: _289  and  _292
REMARK  114  A    between atoms: _292  and  _293
REMARK  115  A    between atoms: _293  and  _294
REMARK  116  A    between atoms: _297  and  _299
REMARK  117  A    between atoms: _299  and  _300
REMARK  118  A    between atoms: _303  and  _305
REMARK  119  A    between atoms: _305  and  _306
REMARK  120  A    between atoms: _305  and  _308
REMARK  121  A    between atoms: _308  and  _309
REMARK  122  A    between atoms: _312  and  _314
REMARK  123  A    between atoms: _314  and  _315
REMARK  124  A    between atoms: _314  and  _317
REMARK  125  A    between atoms: _317  and  _318
REMARK  126  A    between atoms: _318  and  _319
REMARK  127  A    between atoms: _322  and  _324
REMARK  128  A    between atoms: _324  and  _325
REMARK  129  A    between atoms: _324  and  _327
REMARK  130  A    between atoms: _327  and  _328
REMARK  131  A    between atoms: _333  and  _335
REMARK  132  A    between atoms: _335  and  _336
REMARK  133  A    between atoms: _338  and  _340
REMARK  134  A    between atoms: _340  and  _341
REMARK  135  A    between atoms: _340  and  _343
REMARK  136  A    between atoms: _346  and  _348
REMARK  137  A    between atoms: _348  and  _349
REMARK  138  A    between atoms: _352  and  _354
REMARK  139  A    between atoms: _354  and  _355
REMARK  140  A    between atoms: _354  and  _357
REMARK  141  A    between atoms: _357  and  _358
REMARK  142  A    between atoms: _363  and  _365
REMARK  143  A    between atoms: _365  and  _366
REMARK  144  A    between atoms: _365  and  _368
REMARK  145  A    between atoms: _368  and  _369
REMARK  146  A    between atoms: _369  and  _370
REMARK  147  A    between atoms: _370  and  _371
REMARK  148  A    between atoms: _371  and  _372
REMARK  149  A    between atoms: _376  and  _378
REMARK  150  A    between atoms: _378  and  _379
REMARK  151  A    between atoms: _378  and  _381
REMARK  152  A    between atoms: _381  and  _382
REMARK  153  A    between atoms: _385  and  _387
REMARK  154  A    between atoms: _387  and  _388
REMARK  155  A    between atoms: _387  and  _390
REMARK  156  A    between atoms: _390  and  _391
REMARK  157  A    between atoms: _396  and  _398
REMARK  158  A    between atoms: _398  and  _399
REMARK  159  A    between atoms: _401  and  _403
REMARK  160  A    between atoms: _403  and  _404
REMARK  161  A    between atoms: _403  and  _406
REMARK  162  A    between atoms: _406  and  _407
REMARK  163  A    between atoms: _407  and  _408
REMARK  164  A    between atoms: _408  and  _409
REMARK  165  A    between atoms: _409  and  _410
REMARK  166  A    between atoms: _414  and  _416
REMARK  167  A    between atoms: _416  and  _417
REMARK  168  A    between atoms: _416  and  _419
REMARK  169  A    between atoms: _419  and  _420
REMARK  170  A    between atoms: _420  and  _421
REMARK  171  A    between atoms: _421  and  _422
REMARK  172  A    between atoms: _431  and  _433
REMARK  173  A    between atoms: _433  and  _434
REMARK  174  A    between atoms: _433  and  _436
REMARK  175  A    between atoms: _436  and  _437
REMARK  176  A    between atoms: _442  and  _444
REMARK  177  A    between atoms: _444  and  _445
REMARK  178  A    between atoms: _444  and  _447
REMARK  179  A    between atoms: _447  and  _448
REMARK  180  A    between atoms: _453  and  _454
REMARK  181  A    between atoms: _456  and  _458
REMARK  182  A    between atoms: _458  and  _459
REMARK  183  A    between atoms: _458  and  _461
REMARK  184  A    between atoms: _461  and  _462
REMARK  185  A    between atoms: _462  and  _463
REMARK  186  A    between atoms: _463  and  _464
REMARK  187  A    between atoms: _464  and  _465
REMARK  188  A    between atoms: _469  and  _471
REMARK  189  A    between atoms: _471  and  _472
REMARK  190  A    between atoms: _471  and  _474
REMARK  191  A    between atoms: _474  and  _475
REMARK  192  A    between atoms: _477  and  _479
REMARK  193  A    between atoms: _479  and  _480
REMARK  194  A    between atoms: _479  and  _482
REMARK  195  A    between atoms: _482  and  _483
REMARK  196  A    between atoms: _486  and  _488
REMARK  197  A    between atoms: _488  and  _489
REMARK  198  A    between atoms: _488  and  _491
REMARK  199  A    between atoms: _491  and  _492
REMARK  200  A    between atoms: _492  and  _493
REMARK  201  A    between atoms: _496  and  _498
REMARK  202  A    between atoms: _498  and  _499
REMARK  203  A    between atoms: _502  and  _504
REMARK  204  A    between atoms: _504  and  _505
REMARK  205  A    between atoms: _504  and  _507
REMARK  206  A    between atoms: _507  and  _508
REMARK  207  A    between atoms: _510  and  _512
REMARK  208  A    between atoms: _512  and  _513
REMARK  209  A    between atoms: _515  and  _517
REMARK  210  A    between atoms: _517  and  _518
REMARK  211  A    between atoms: _517  and  _520
REMARK  212  A    between atoms: _520  and  _521
REMARK  213  A    between atoms: _524  and  _526
REMARK  214  A    between atoms: _526  and  _527
REMARK  215  A    between atoms: _529  and  _531
REMARK  216  A    between atoms: _531  and  _532
REMARK  217  A    between atoms: _531  and  _534
REMARK  218  A    between atoms: _534  and  _535
REMARK  219  A    between atoms: _540  and  _542
REMARK  220  A    between atoms: _542  and  _543
REMARK  221  A    between atoms: _542  and  _545
REMARK  222  A    between atoms: _545  and  _546
REMARK  223  A    between atoms: _546  and  _547
REMARK  224  A    between atoms: _554  and  _555
REMARK  225  A    between atoms: _555  and  _571
REMARK  226  A    between atoms: _556  and  _558
REMARK  227  A    between atoms: _558  and  _559
REMARK  228  A    between atoms: _559  and  _560
REMARK  229  A    between atoms: _564  and  _566
REMARK  230  A    between atoms: _566  and  _567
REMARK  231  A    between atoms: _566  and  _574
REMARK  232  A    between atoms: _567  and  _568
REMARK  233  A    between atoms: _568  and  _569
REMARK  234  A    between atoms: _569  and  _570
REMARK  235  A    between atoms: _570  and  _571
REMARK  236  A    between atoms: _576  and  _578
REMARK  237  A    between atoms: _578  and  _579
REMARK  238  A    between atoms: _578  and  _581
REMARK  239  A    between atoms: _581  and  _582
REMARK  240  A    between atoms: _585  and  _587
REMARK  241  A    between atoms: _587  and  _588
REMARK  242  A    between atoms: _590  and  _592
REMARK  243  A    between atoms: _592  and  _593
REMARK  244  A    between atoms: _596  and  _598
REMARK  245  A    between atoms: _598  and  _599
REMARK  246  A    between atoms: _598  and  _601
REMARK  247  A    between atoms: _601  and  _602
REMARK  248  A    between atoms: _607  and  _608
REMARK                            x       y       z     vdW  Elec       q    Type
REMARK                         _______ _______ _______ _____ _____    ______ ____
ROOT
ATOM      1  O   HOH     1      35.804  24.884  24.034  0.00  0.00    +0.000 OA
ENDROOT
TORSDOF 0
REMARK  Name = ../refined-set-2016/4el5/4el5_pocket.pdb
REMARK  248 active torsions:
REMARK  status: ('A' for Active; 'I' for Inactive)
REMARK    1  A    between atoms: _1  and  _3
REMARK    2  A    between atoms: _3  and  _4
REMARK    3  A    between atoms: _3  and  _6
REMARK    4  A    between atoms: _6  and  _7
REMARK    5  A    between atoms: _12  and  _13
REMARK    6  A    between atoms: _15  and  _17
REMARK    7  A    between atoms: _17  and  _18
REMARK    8  A    between atoms: _17  and  _20
REMARK    9  A    between atoms: _20  and  _21
REMARK   10  A    between atoms: _21  and  _22
REMARK   11  A    between atoms: _25  and  _27
REMARK   12  A    between atoms: _27  and  _28
REMARK   13  A    between atoms: _27  and  _30
REMARK   14  A    between atoms: _30  and  _31
REMARK   15  A    between atoms: _36  and  _38
REMARK   16  A    between atoms: _38  and  _39
REMARK   17  A    between atoms: _41  and  _43
REMARK   18  A    between atoms: _43  and  _44
REMARK   19  A    between atoms: _46  and  _48
REMARK   20  A    between atoms: _48  and  _49
REMARK   21  A    between atoms: _48  and  _51
REMARK   22  A    between atoms: _51  and  _52
REMARK   23  A    between atoms: _55  and  _57
REMARK   24  A    between atoms: _57  and  _58
REMARK   25  A    between atoms: _60  and  _62
REMARK   26  A    between atoms: _62  and  _63
REMARK   27  A    between atoms: _62  and  _65
REMARK   28  A    between atoms: _65  and  _66
REMARK   29  A    between atoms: _66  and  _67
REMARK   30  A    between atoms: _67  and  _68
REMARK   31  A    between atoms: _77  and  _79
REMARK   32  A    between atoms: _79  and  _80
REMARK   33  A    between atoms: _79  and  _82
REMARK   34  A    between atoms: _82  and  _83
REMARK   35  A    between atoms: _86  and  _88
REMARK   36  A    between atoms: _88  and  _89
REMARK   37  A    between atoms: _92  and  _94
REMARK   38  A    between atoms: _94  and  _95
REMARK   39  A    between atoms: _94  and  _97
REMARK   40  A    between atoms: _97  and  _98
REMARK   41  A    between atoms: _104  and  _106
REMARK   42  A    between atoms: _106  and  _107
REMARK   43  A    between atoms: _106  and  _109
REMARK   44  A    between atoms: _109  and  _110
REMARK   45  A    between atoms: _115  and  _117
REMARK   46  A    between atoms: _117  and  _118
REMARK   47  A    between atoms: _117  and  _120
REMARK   48  A    between atoms: _120  and  _121
REMARK   49  A    between atoms: _124  and  _126
REMARK   50  A    between atoms: _126  and  _127
REMARK   51  A    between atoms: _126  and  _129
REMARK   52  A    between atoms: _129  and  _130
REMARK   53  A    between atoms: _135  and  _137
REMARK   54  A    between atoms: _137  and  _138
REMARK   55  A    between atoms: _137  and  _140
REMARK   56  A    between atoms: _140  and  _141
REMARK   57  A    between atoms: _147  and  _149
REMARK   58  A    between atoms: _149  and  _150
REMARK   59  A    between atoms: _149  and  _152
REMARK   60  A    between atoms: _152  and  _153
REMARK   61  A    between atoms: _159  and  _161
REMARK   62  A    between atoms: _161  and  _162
REMARK   63  A    between atoms: _161  and  _164
REMARK   64  A    between atoms: _164  and  _165
REMARK   65  A    between atoms: _165  and  _166
REMARK   66  A    between atoms: _166  and  _167
REMARK   67  A    between atoms: _176  and  _178
REMARK   68  A    between atoms: _178  and  _179
REMARK   69  A    between atoms: _178  and  _181
REMARK   70  A    between atoms: _181  and  _182
REMARK   71  A    between atoms: _187  and  _189
REMARK   72  A    between atoms: _189  and  _190
REMARK   73  A    between atoms: _189  and  _192
REMARK   74  A    between atoms: _192  and  _193
REMARK   75  A    between atoms: _196  and  _198
REMARK   76  A    between atoms: _198  and  _199
REMARK   77  A    between atoms: _198  and  _201
REMARK   78  A    between atoms: _201  and  _202
REMARK   79  A    between atoms: _205  and  _207
REMARK   80  A    between atoms: _207  and  _208
REMARK   81  A    between atoms: _207  and  _210
REMARK   82  A    between atoms: _210  and  _211
REMARK   83  A    between atoms: _216  and  _218
REMARK   84  A    between atoms: _218  and  _219
REMARK   85  A    between atoms: _218  and  _221
REMARK   86  A    between atoms: _221  and  _222
REMARK   87  A    between atoms: _227  and  _228
REMARK   88  A    between atoms: _230  and  _232
REMARK   89  A    between atoms: _232  and  _233
REMARK   90  A    between atoms: _232  and  _235
REMARK   91  A    between atoms: _235  and  _236
REMARK   92  A    between atoms: _239  and  _241
REMARK   93  A    between atoms: _241  and  _242
REMARK   94  A    between atoms: _241  and  _244
REMARK   95  A    between atoms: _244  and  _245
REMARK   96  A    between atoms: _250  and  _252
REMARK   97  A    between atoms: _252  and  _253
REMARK   98  A    between atoms: _252  and  _255
REMARK   99  A    between atoms: _255  and  _256
REMARK  100  A    between atoms: _261  and  _263
REMARK  101  A    between atoms: _263  and  _264
REMARK  102  A    between atoms: _263  and  _266
REMARK  103  A    between atoms: _266  and  _267
REMARK  104  A    between atoms: _270  and  _272
REMARK  105  A    between atoms: _272  and  _273
REMARK  106  A    between atoms: _272  and  _275
REMARK  107  A    between atoms: _278  and  _280
REMARK  108  A    between atoms: _280  and  _281
REMARK  109  A    between atoms: _280  and  _283
REMARK  110  A    between atoms: _283  and  _284
REMARK  111  A    between atoms: _287  and  _289
REMARK  112  A    between atoms: _289  and  _290
REMARK  113  A    between atoms: _289  and  _292
REMARK  114  A    between atoms: _292  and  _293
REMARK  115  A    between atoms: _293  and  _294
REMARK  116  A    between atoms: _297  and  _299
REMARK  117  A    between atoms: _299  and  _300
REMARK  118  A    between atoms: _303  and  _305
REMARK  119  A    between atoms: _305  and  _306
REMARK  120  A    between atoms: _305  and  _308
REMARK  121  A    between atoms: _308  and  _309
REMARK  122  A    between atoms: _312  and  _314
REMARK  123  A    between atoms: _314  and  _315
REMARK  124  A    between atoms: _314  and  _317
REMARK  125  A    between atoms: _317  and  _318
REMARK  126  A    between atoms: _318  and  _319
REMARK  127  A    between atoms: _322  and  _324
REMARK  128  A    between atoms: _324  and  _325
REMARK  129  A    between atoms: _324  and  _327
REMARK  130  A    between atoms: _327  and  _328
REMARK  131  A    between atoms: _333  and  _335
REMARK  132  A    between atoms: _335  and  _336
REMARK  133  A    between atoms: _338  and  _340
REMARK  134  A    between atoms: _340  and  _341
REMARK  135  A    between atoms: _340  and  _343
REMARK  136  A    between atoms: _346  and  _348
REMARK  137  A    between atoms: _348  and  _349
REMARK  138  A    between atoms: _352  and  _354
REMARK  139  A    between atoms: _354  and  _355
REMARK  140  A    between atoms: _354  and  _357
REMARK  141  A    between atoms: _357  and  _358
REMARK  142  A    between atoms: _363  and  _365
REMARK  143  A    between atoms: _365  and  _366
REMARK  144  A    between atoms: _365  and  _368
REMARK  145  A    between atoms: _368  and  _369
REMARK  146  A    between atoms: _369  and  _370
REMARK  147  A    between atoms: _370  and  _371
REMARK  148  A    between atoms: _371  and  _372
REMARK  149  A    between atoms: _376  and  _378
REMARK  150  A    between atoms: _378  and  _379
REMARK  151  A    between atoms: _378  and  _381
REMARK  152  A    between atoms: _381  and  _382
REMARK  153  A    between atoms: _385  and  _387
REMARK  154  A    between atoms: _387  and  _388
REMARK  155  A    between atoms: _387  and  _390
REMARK  156  A    between atoms: _390  and  _391
REMARK  157  A    between atoms: _396  and  _398
REMARK  158  A    between atoms: _398  and  _399
REMARK  159  A    between atoms: _401  and  _403
REMARK  160  A    between atoms: _403  and  _404
REMARK  161  A    between atoms: _403  and  _406
REMARK  162  A    between atoms: _406  and  _407
REMARK  163  A    between atoms: _407  and  _408
REMARK  164  A    between atoms: _408  and  _409
REMARK  165  A    between atoms: _409  and  _410
REMARK  166  A    between atoms: _414  and  _416
REMARK  167  A    between atoms: _416  and  _417
REMARK  168  A    between atoms: _416  and  _419
REMARK  169  A    between atoms: _419  and  _420
REMARK  170  A    between atoms: _420  and  _421
REMARK  171  A    between atoms: _421  and  _422
REMARK  172  A    between atoms: _431  and  _433
REMARK  173  A    between atoms: _433  and  _434
REMARK  174  A    between atoms: _433  and  _436
REMARK  175  A    between atoms: _436  and  _437
REMARK  176  A    between atoms: _442  and  _444
REMARK  177  A    between atoms: _444  and  _445
REMARK  178  A    between atoms: _444  and  _447
REMARK  179  A    between atoms: _447  and  _448
REMARK  180  A    between atoms: _453  and  _454
REMARK  181  A    between atoms: _456  and  _458
REMARK  182  A    between atoms: _458  and  _459
REMARK  183  A    between atoms: _458  and  _461
REMARK  184  A    between atoms: _461  and  _462
REMARK  185  A    between atoms: _462  and  _463
REMARK  186  A    between atoms: _463  and  _464
REMARK  187  A    between atoms: _464  and  _465
REMARK  188  A    between atoms: _469  and  _471
REMARK  189  A    between atoms: _471  and  _472
REMARK  190  A    between atoms: _471  and  _474
REMARK  191  A    between atoms: _474  and  _475
REMARK  192  A    between atoms: _477  and  _479
REMARK  193  A    between atoms: _479  and  _480
REMARK  194  A    between atoms: _479  and  _482
REMARK  195  A    between atoms: _482  and  _483
REMARK  196  A    between atoms: _486  and  _488
REMARK  197  A    between atoms: _488  and  _489
REMARK  198  A    between atoms: _488  and  _491
REMARK  199  A    between atoms: _491  and  _492
REMARK  200  A    between atoms: _492  and  _493
REMARK  201  A    between atoms: _496  and  _498
REMARK  202  A    between atoms: _498  and  _499
REMARK  203  A    between atoms: _502  and  _504
REMARK  204  A    between atoms: _504  and  _505
REMARK  205  A    between atoms: _504  and  _507
REMARK  206  A    between atoms: _507  and  _508
REMARK  207  A    between atoms: _510  and  _512
REMARK  208  A    between atoms: _512  and  _513
REMARK  209  A    between atoms: _515  and  _517
REMARK  210  A    between atoms: _517  and  _518
REMARK  211  A    between atoms: _517  and  _520
REMARK  212  A    between atoms: _520  and  _521
REMARK  213  A    between atoms: _524  and  _526
REMARK  214  A    between atoms: _526  and  _527
REMARK  215  A    between atoms: _529  and  _531
REMARK  216  A    between atoms: _531  and  _532
REMARK  217  A    between atoms: _531  and  _534
REMARK  218  A    between atoms: _534  and  _535
REMARK  219  A    between atoms: _540  and  _542
REMARK  220  A    between atoms: _542  and  _543
REMARK  221  A    between atoms: _542  and  _545
REMARK  222  A    between atoms: _545  and  _546
REMARK  223  A    between atoms: _546  and  _547
REMARK  224  A    between atoms: _554  and  _555
REMARK  225  A    between atoms: _555  and  _571
REMARK  226  A    between atoms: _556  and  _558
REMARK  227  A    between atoms: _558  and  _559
REMARK  228  A    between atoms: _559  and  _560
REMARK  229  A    between atoms: _564  and  _566
REMARK  230  A    between atoms: _566  and  _567
REMARK  231  A    between atoms: _566  and  _574
REMARK  232  A    between atoms: _567  and  _568
REMARK  233  A    between atoms: _568  and  _569
REMARK  234  A    between atoms: _569  and  _570
REMARK  235  A    between atoms: _570  and  _571
REMARK  236  A    between atoms: _576  and  _578
REMARK  237  A    between atoms: _578  and  _579
REMARK  238  A    between atoms: _578  and  _581
REMARK  239  A    between atoms: _581  and  _582
REMARK  240  A    between atoms: _585  and  _587
REMARK  241  A    between atoms: _587  and  _588
REMARK  242  A    between atoms: _590  and  _592
REMARK  243  A    between atoms: _592  and  _593
REMARK  244  A    between atoms: _596  and  _598
REMARK  245  A    between atoms: _598  and  _599
REMARK  246  A    between atoms: _598  and  _601
REMARK  247  A    between atoms: _601  and  _602
REMARK  248  A    between atoms: _607  and  _608
REMARK                            x       y       z     vdW  Elec       q    Type
REMARK                         _______ _______ _______ _____ _____    ______ ____
ROOT
ATOM      1  O   HOH     1      38.868  22.828  19.880  0.00  0.00    +0.000 OA
ENDROOT
TORSDOF 0
REMARK  Name = ../refined-set-2016/4el5/4el5_pocket.pdb
REMARK  248 active torsions:
REMARK  status: ('A' for Active; 'I' for Inactive)
REMARK    1  A    between atoms: _1  and  _3
REMARK    2  A    between atoms: _3  and  _4
REMARK    3  A    between atoms: _3  and  _6
REMARK    4  A    between atoms: _6  and  _7
REMARK    5  A    between atoms: _12  and  _13
REMARK    6  A    between atoms: _15  and  _17
REMARK    7  A    between atoms: _17  and  _18
REMARK    8  A    between atoms: _17  and  _20
REMARK    9  A    between atoms: _20  and  _21
REMARK   10  A    between atoms: _21  and  _22
REMARK   11  A    between atoms: _25  and  _27
REMARK   12  A    between atoms: _27  and  _28
REMARK   13  A    between atoms: _27  and  _30
REMARK   14  A    between atoms: _30  and  _31
REMARK   15  A    between atoms: _36  and  _38
REMARK   16  A    between atoms: _38  and  _39
REMARK   17  A    between atoms: _41  and  _43
REMARK   18  A    between atoms: _43  and  _44
REMARK   19  A    between atoms: _46  and  _48
REMARK   20  A    between atoms: _48  and  _49
REMARK   21  A    between atoms: _48  and  _51
REMARK   22  A    between atoms: _51  and  _52
REMARK   23  A    between atoms: _55  and  _57
REMARK   24  A    between atoms: _57  and  _58
REMARK   25  A    between atoms: _60  and  _62
REMARK   26  A    between atoms: _62  and  _63
REMARK   27  A    between atoms: _62  and  _65
REMARK   28  A    between atoms: _65  and  _66
REMARK   29  A    between atoms: _66  and  _67
REMARK   30  A    between atoms: _67  and  _68
REMARK   31  A    between atoms: _77  and  _79
REMARK   32  A    between atoms: _79  and  _80
REMARK   33  A    between atoms: _79  and  _82
REMARK   34  A    between atoms: _82  and  _83
REMARK   35  A    between atoms: _86  and  _88
REMARK   36  A    between atoms: _88  and  _89
REMARK   37  A    between atoms: _92  and  _94
REMARK   38  A    between atoms: _94  and  _95
REMARK   39  A    between atoms: _94  and  _97
REMARK   40  A    between atoms: _97  and  _98
REMARK   41  A    between atoms: _104  and  _106
REMARK   42  A    between atoms: _106  and  _107
REMARK   43  A    between atoms: _106  and  _109
REMARK   44  A    between atoms: _109  and  _110
REMARK   45  A    between atoms: _115  and  _117
REMARK   46  A    between atoms: _117  and  _118
REMARK   47  A    between atoms: _117  and  _120
REMARK   48  A    between atoms: _120  and  _121
REMARK   49  A    between atoms: _124  and  _126
REMARK   50  A    between atoms: _126  and  _127
REMARK   51  A    between atoms: _126  and  _129
REMARK   52  A    between atoms: _129  and  _130
REMARK   53  A    between atoms: _135  and  _137
REMARK   54  A    between atoms: _137  and  _138
REMARK   55  A    between atoms: _137  and  _140
REMARK   56  A    between atoms: _140  and  _141
REMARK   57  A    between atoms: _147  and  _149
REMARK   58  A    between atoms: _149  and  _150
REMARK   59  A    between atoms: _149  and  _152
REMARK   60  A    between atoms: _152  and  _153
REMARK   61  A    between atoms: _159  and  _161
REMARK   62  A    between atoms: _161  and  _162
REMARK   63  A    between atoms: _161  and  _164
REMARK   64  A    between atoms: _164  and  _165
REMARK   65  A    between atoms: _165  and  _166
REMARK   66  A    between atoms: _166  and  _167
REMARK   67  A    between atoms: _176  and  _178
REMARK   68  A    between atoms: _178  and  _179
REMARK   69  A    between atoms: _178  and  _181
REMARK   70  A    between atoms: _181  and  _182
REMARK   71  A    between atoms: _187  and  _189
REMARK   72  A    between atoms: _189  and  _190
REMARK   73  A    between atoms: _189  and  _192
REMARK   74  A    between atoms: _192  and  _193
REMARK   75  A    between atoms: _196  and  _198
REMARK   76  A    between atoms: _198  and  _199
REMARK   77  A    between atoms: _198  and  _201
REMARK   78  A    between atoms: _201  and  _202
REMARK   79  A    between atoms: _205  and  _207
REMARK   80  A    between atoms: _207  and  _208
REMARK   81  A    between atoms: _207  and  _210
REMARK   82  A    between atoms: _210  and  _211
REMARK   83  A    between atoms: _216  and  _218
REMARK   84  A    between atoms: _218  and  _219
REMARK   85  A    between atoms: _218  and  _221
REMARK   86  A    between atoms: _221  and  _222
REMARK   87  A    between atoms: _227  and  _228
REMARK   88  A    between atoms: _230  and  _232
REMARK   89  A    between atoms: _232  and  _233
REMARK   90  A    between atoms: _232  and  _235
REMARK   91  A    between atoms: _235  and  _236
REMARK   92  A    between atoms: _239  and  _241
REMARK   93  A    between atoms: _241  and  _242
REMARK   94  A    between atoms: _241  and  _244
REMARK   95  A    between atoms: _244  and  _245
REMARK   96  A    between atoms: _250  and  _252
REMARK   97  A    between atoms: _252  and  _253
REMARK   98  A    between atoms: _252  and  _255
REMARK   99  A    between atoms: _255  and  _256
REMARK  100  A    between atoms: _261  and  _263
REMARK  101  A    between atoms: _263  and  _264
REMARK  102  A    between atoms: _263  and  _266
REMARK  103  A    between atoms: _266  and  _267
REMARK  104  A    between atoms: _270  and  _272
REMARK  105  A    between atoms: _272  and  _273
REMARK  106  A    between atoms: _272  and  _275
REMARK  107  A    between atoms: _278  and  _280
REMARK  108  A    between atoms: _280  and  _281
REMARK  109  A    between atoms: _280  and  _283
REMARK  110  A    between atoms: _283  and  _284
REMARK  111  A    between atoms: _287  and  _289
REMARK  112  A    between atoms: _289  and  _290
REMARK  113  A    between atoms: _289  and  _292
REMARK  114  A    between atoms: _292  and  _293
REMARK  115  A    between atoms: _293  and  _294
REMARK  116  A    between atoms: _297  and  _299
REMARK  117  A    between atoms: _299  and  _300
REMARK  118  A    between atoms: _303  and  _305
REMARK  119  A    between atoms: _305  and  _306
REMARK  120  A    between atoms: _305  and  _308
REMARK  121  A    between atoms: _308  and  _309
REMARK  122  A    between atoms: _312  and  _314
REMARK  123  A    between atoms: _314  and  _315
REMARK  124  A    between atoms: _314  and  _317
REMARK  125  A    between atoms: _317  and  _318
REMARK  126  A    between atoms: _318  and  _319
REMARK  127  A    between atoms: _322  and  _324
REMARK  128  A    between atoms: _324  and  _325
REMARK  129  A    between atoms: _324  and  _327
REMARK  130  A    between atoms: _327  and  _328
REMARK  131  A    between atoms: _333  and  _335
REMARK  132  A    between atoms: _335  and  _336
REMARK  133  A    between atoms: _338  and  _340
REMARK  134  A    between atoms: _340  and  _341
REMARK  135  A    between atoms: _340  and  _343
REMARK  136  A    between atoms: _346  and  _348
REMARK  137  A    between atoms: _348  and  _349
REMARK  138  A    between atoms: _352  and  _354
REMARK  139  A    between atoms: _354  and  _355
REMARK  140  A    between atoms: _354  and  _357
REMARK  141  A    between atoms: _357  and  _358
REMARK  142  A    between atoms: _363  and  _365
REMARK  143  A    between atoms: _365  and  _366
REMARK  144  A    between atoms: _365  and  _368
REMARK  145  A    between atoms: _368  and  _369
REMARK  146  A    between atoms: _369  and  _370
REMARK  147  A    between atoms: _370  and  _371
REMARK  148  A    between atoms: _371  and  _372
REMARK  149  A    between atoms: _376  and  _378
REMARK  150  A    between atoms: _378  and  _379
REMARK  151  A    between atoms: _378  and  _381
REMARK  152  A    between atoms: _381  and  _382
REMARK  153  A    between atoms: _385  and  _387
REMARK  154  A    between atoms: _387  and  _388
REMARK  155  A    between atoms: _387  and  _390
REMARK  156  A    between atoms: _390  and  _391
REMARK  157  A    between atoms: _396  and  _398
REMARK  158  A    between atoms: _398  and  _399
REMARK  159  A    between atoms: _401  and  _403
REMARK  160  A    between atoms: _403  and  _404
REMARK  161  A    between atoms: _403  and  _406
REMARK  162  A    between atoms: _406  and  _407
REMARK  163  A    between atoms: _407  and  _408
REMARK  164  A    between atoms: _408  and  _409
REMARK  165  A    between atoms: _409  and  _410
REMARK  166  A    between atoms: _414  and  _416
REMARK  167  A    between atoms: _416  and  _417
REMARK  168  A    between atoms: _416  and  _419
REMARK  169  A    between atoms: _419  and  _420
REMARK  170  A    between atoms: _420  and  _421
REMARK  171  A    between atoms: _421  and  _422
REMARK  172  A    between atoms: _431  and  _433
REMARK  173  A    between atoms: _433  and  _434
REMARK  174  A    between atoms: _433  and  _436
REMARK  175  A    between atoms: _436  and  _437
REMARK  176  A    between atoms: _442  and  _444
REMARK  177  A    between atoms: _444  and  _445
REMARK  178  A    between atoms: _444  and  _447
REMARK  179  A    between atoms: _447  and  _448
REMARK  180  A    between atoms: _453  and  _454
REMARK  181  A    between atoms: _456  and  _458
REMARK  182  A    between atoms: _458  and  _459
REMARK  183  A    between atoms: _458  and  _461
REMARK  184  A    between atoms: _461  and  _462
REMARK  185  A    between atoms: _462  and  _463
REMARK  186  A    between atoms: _463  and  _464
REMARK  187  A    between atoms: _464  and  _465
REMARK  188  A    between atoms: _469  and  _471
REMARK  189  A    between atoms: _471  and  _472
REMARK  190  A    between atoms: _471  and  _474
REMARK  191  A    between atoms: _474  and  _475
REMARK  192  A    between atoms: _477  and  _479
REMARK  193  A    between atoms: _479  and  _480
REMARK  194  A    between atoms: _479  and  _482
REMARK  195  A    between atoms: _482  and  _483
REMARK  196  A    between atoms: _486  and  _488
REMARK  197  A    between atoms: _488  and  _489
REMARK  198  A    between atoms: _488  and  _491
REMARK  199  A    between atoms: _491  and  _492
REMARK  200  A    between atoms: _492  and  _493
REMARK  201  A    between atoms: _496  and  _498
REMARK  202  A    between atoms: _498  and  _499
REMARK  203  A    between atoms: _502  and  _504
REMARK  204  A    between atoms: _504  and  _505
REMARK  205  A    between atoms: _504  and  _507
REMARK  206  A    between atoms: _507  and  _508
REMARK  207  A    between atoms: _510  and  _512
REMARK  208  A    between atoms: _512  and  _513
REMARK  209  A    between atoms: _515  and  _517
REMARK  210  A    between atoms: _517  and  _518
REMARK  211  A    between atoms: _517  and  _520
REMARK  212  A    between atoms: _520  and  _521
REMARK  213  A    between atoms: _524  and  _526
REMARK  214  A    between atoms: _526  and  _527
REMARK  215  A    between atoms: _529  and  _531
REMARK  216  A    between atoms: _531  and  _532
REMARK  217  A    between atoms: _531  and  _534
REMARK  218  A    between atoms: _534  and  _535
REMARK  219  A    between atoms: _540  and  _542
REMARK  220  A    between atoms: _542  and  _543
REMARK  221  A    between atoms: _542  and  _545
REMARK  222  A    between atoms: _545  and  _546
REMARK  223  A    between atoms: _546  and  _547
REMARK  224  A    between atoms: _554  and  _555
REMARK  225  A    between atoms: _555  and  _571
REMARK  226  A    between atoms: _556  and  _558
REMARK  227  A    between atoms: _558  and  _559
REMARK  228  A    between atoms: _559  and  _560
REMARK  229  A    between atoms: _564  and  _566
REMARK  230  A    between atoms: _566  and  _567
REMARK  231  A    between atoms: _566  and  _574
REMARK  232  A    between atoms: _567  and  _568
REMARK  233  A    between atoms: _568  and  _569
REMARK  234  A    between atoms: _569  and  _570
REMARK  235  A    between atoms: _570  and  _571
REMARK  236  A    between atoms: _576  and  _578
REMARK  237  A    between atoms: _578  and  _579
REMARK  238  A    between atoms: _578  and  _581
REMARK  239  A    between atoms: _581  and  _582
REMARK  240  A    between atoms: _585  and  _587
REMARK  241  A    between atoms: _587  and  _588
REMARK  242  A    between atoms: _590  and  _592
REMARK  243  A    between atoms: _592  and  _593
REMARK  244  A    between atoms: _596  and  _598
REMARK  245  A    between atoms: _598  and  _599
REMARK  246  A    between atoms: _598  and  _601
REMARK  247  A    between atoms: _601  and  _602
REMARK  248  A    between atoms: _607  and  _608
REMARK                            x       y       z     vdW  Elec       q    Type
REMARK                         _______ _______ _______ _____ _____    ______ ____
ROOT
ATOM      1  O   HOH     1      43.047  20.574  30.007  0.00  0.00    +0.000 OA
ENDROOT
TORSDOF 0
REMARK  Name = ../refined-set-2016/4el5/4el5_pocket.pdb
REMARK  248 active torsions:
REMARK  status: ('A' for Active; 'I' for Inactive)
REMARK    1  A    between atoms: _1  and  _3
REMARK    2  A    between atoms: _3  and  _4
REMARK    3  A    between atoms: _3  and  _6
REMARK    4  A    between atoms: _6  and  _7
REMARK    5  A    between atoms: _12  and  _13
REMARK    6  A    between atoms: _15  and  _17
REMARK    7  A    between atoms: _17  and  _18
REMARK    8  A    between atoms: _17  and  _20
REMARK    9  A    between atoms: _20  and  _21
REMARK   10  A    between atoms: _21  and  _22
REMARK   11  A    between atoms: _25  and  _27
REMARK   12  A    between atoms: _27  and  _28
REMARK   13  A    between atoms: _27  and  _30
REMARK   14  A    between atoms: _30  and  _31
REMARK   15  A    between atoms: _36  and  _38
REMARK   16  A    between atoms: _38  and  _39
REMARK   17  A    between atoms: _41  and  _43
REMARK   18  A    between atoms: _43  and  _44
REMARK   19  A    between atoms: _46  and  _48
REMARK   20  A    between atoms: _48  and  _49
REMARK   21  A    between atoms: _48  and  _51
REMARK   22  A    between atoms: _51  and  _52
REMARK   23  A    between atoms: _55  and  _57
REMARK   24  A    between atoms: _57  and  _58
REMARK   25  A    between atoms: _60  and  _62
REMARK   26  A    between atoms: _62  and  _63
REMARK   27  A    between atoms: _62  and  _65
REMARK   28  A    between atoms: _65  and  _66
REMARK   29  A    between atoms: _66  and  _67
REMARK   30  A    between atoms: _67  and  _68
REMARK   31  A    between atoms: _77  and  _79
REMARK   32  A    between atoms: _79  and  _80
REMARK   33  A    between atoms: _79  and  _82
REMARK   34  A    between atoms: _82  and  _83
REMARK   35  A    between atoms: _86  and  _88
REMARK   36  A    between atoms: _88  and  _89
REMARK   37  A    between atoms: _92  and  _94
REMARK   38  A    between atoms: _94  and  _95
REMARK   39  A    between atoms: _94  and  _97
REMARK   40  A    between atoms: _97  and  _98
REMARK   41  A    between atoms: _104  and  _106
REMARK   42  A    between atoms: _106  and  _107
REMARK   43  A    between atoms: _106  and  _109
REMARK   44  A    between atoms: _109  and  _110
REMARK   45  A    between atoms: _115  and  _117
REMARK   46  A    between atoms: _117  and  _118
REMARK   47  A    between atoms: _117  and  _120
REMARK   48  A    between atoms: _120  and  _121
REMARK   49  A    between atoms: _124  and  _126
REMARK   50  A    between atoms: _126  and  _127
REMARK   51  A    between atoms: _126  and  _129
REMARK   52  A    between atoms: _129  and  _130
REMARK   53  A    between atoms: _135  and  _137
REMARK   54  A    between atoms: _137  and  _138
REMARK   55  A    between atoms: _137  and  _140
REMARK   56  A    between atoms: _140  and  _141
REMARK   57  A    between atoms: _147  and  _149
REMARK   58  A    between atoms: _149  and  _150
REMARK   59  A    between atoms: _149  and  _152
REMARK   60  A    between atoms: _152  and  _153
REMARK   61  A    between atoms: _159  and  _161
REMARK   62  A    between atoms: _161  and  _162
REMARK   63  A    between atoms: _161  and  _164
REMARK   64  A    between atoms: _164  and  _165
REMARK   65  A    between atoms: _165  and  _166
REMARK   66  A    between atoms: _166  and  _167
REMARK   67  A    between atoms: _176  and  _178
REMARK   68  A    between atoms: _178  and  _179
REMARK   69  A    between atoms: _178  and  _181
REMARK   70  A    between atoms: _181  and  _182
REMARK   71  A    between atoms: _187  and  _189
REMARK   72  A    between atoms: _189  and  _190
REMARK   73  A    between atoms: _189  and  _192
REMARK   74  A    between atoms: _192  and  _193
REMARK   75  A    between atoms: _196  and  _198
REMARK   76  A    between atoms: _198  and  _199
REMARK   77  A    between atoms: _198  and  _201
REMARK   78  A    between atoms: _201  and  _202
REMARK   79  A    between atoms: _205  and  _207
REMARK   80  A    between atoms: _207  and  _208
REMARK   81  A    between atoms: _207  and  _210
REMARK   82  A    between atoms: _210  and  _211
REMARK   83  A    between atoms: _216  and  _218
REMARK   84  A    between atoms: _218  and  _219
REMARK   85  A    between atoms: _218  and  _221
REMARK   86  A    between atoms: _221  and  _222
REMARK   87  A    between atoms: _227  and  _228
REMARK   88  A    between atoms: _230  and  _232
REMARK   89  A    between atoms: _232  and  _233
REMARK   90  A    between atoms: _232  and  _235
REMARK   91  A    between atoms: _235  and  _236
REMARK   92  A    between atoms: _239  and  _241
REMARK   93  A    between atoms: _241  and  _242
REMARK   94  A    between atoms: _241  and  _244
REMARK   95  A    between atoms: _244  and  _245
REMARK   96  A    between atoms: _250  and  _252
REMARK   97  A    between atoms: _252  and  _253
REMARK   98  A    between atoms: _252  and  _255
REMARK   99  A    between atoms: _255  and  _256
REMARK  100  A    between atoms: _261  and  _263
REMARK  101  A    between atoms: _263  and  _264
REMARK  102  A    between atoms: _263  and  _266
REMARK  103  A    between atoms: _266  and  _267
REMARK  104  A    between atoms: _270  and  _272
REMARK  105  A    between atoms: _272  and  _273
REMARK  106  A    between atoms: _272  and  _275
REMARK  107  A    between atoms: _278  and  _280
REMARK  108  A    between atoms: _280  and  _281
REMARK  109  A    between atoms: _280  and  _283
REMARK  110  A    between atoms: _283  and  _284
REMARK  111  A    between atoms: _287  and  _289
REMARK  112  A    between atoms: _289  and  _290
REMARK  113  A    between atoms: _289  and  _292
REMARK  114  A    between atoms: _292  and  _293
REMARK  115  A    between atoms: _293  and  _294
REMARK  116  A    between atoms: _297  and  _299
REMARK  117  A    between atoms: _299  and  _300
REMARK  118  A    between atoms: _303  and  _305
REMARK  119  A    between atoms: _305  and  _306
REMARK  120  A    between atoms: _305  and  _308
REMARK  121  A    between atoms: _308  and  _309
REMARK  122  A    between atoms: _312  and  _314
REMARK  123  A    between atoms: _314  and  _315
REMARK  124  A    between atoms: _314  and  _317
REMARK  125  A    between atoms: _317  and  _318
REMARK  126  A    between atoms: _318  and  _319
REMARK  127  A    between atoms: _322  and  _324
REMARK  128  A    between atoms: _324  and  _325
REMARK  129  A    between atoms: _324  and  _327
REMARK  130  A    between atoms: _327  and  _328
REMARK  131  A    between atoms: _333  and  _335
REMARK  132  A    between atoms: _335  and  _336
REMARK  133  A    between atoms: _338  and  _340
REMARK  134  A    between atoms: _340  and  _341
REMARK  135  A    between atoms: _340  and  _343
REMARK  136  A    between atoms: _346  and  _348
REMARK  137  A    between atoms: _348  and  _349
REMARK  138  A    between atoms: _352  and  _354
REMARK  139  A    between atoms: _354  and  _355
REMARK  140  A    between atoms: _354  and  _357
REMARK  141  A    between atoms: _357  and  _358
REMARK  142  A    between atoms: _363  and  _365
REMARK  143  A    between atoms: _365  and  _366
REMARK  144  A    between atoms: _365  and  _368
REMARK  145  A    between atoms: _368  and  _369
REMARK  146  A    between atoms: _369  and  _370
REMARK  147  A    between atoms: _370  and  _371
REMARK  148  A    between atoms: _371  and  _372
REMARK  149  A    between atoms: _376  and  _378
REMARK  150  A    between atoms: _378  and  _379
REMARK  151  A    between atoms: _378  and  _381
REMARK  152  A    between atoms: _381  and  _382
REMARK  153  A    between atoms: _385  and  _387
REMARK  154  A    between atoms: _387  and  _388
REMARK  155  A    between atoms: _387  and  _390
REMARK  156  A    between atoms: _390  and  _391
REMARK  157  A    between atoms: _396  and  _398
REMARK  158  A    between atoms: _398  and  _399
REMARK  159  A    between atoms: _401  and  _403
REMARK  160  A    between atoms: _403  and  _404
REMARK  161  A    between atoms: _403  and  _406
REMARK  162  A    between atoms: _406  and  _407
REMARK  163  A    between atoms: _407  and  _408
REMARK  164  A    between atoms: _408  and  _409
REMARK  165  A    between atoms: _409  and  _410
REMARK  166  A    between atoms: _414  and  _416
REMARK  167  A    between atoms: _416  and  _417
REMARK  168  A    between atoms: _416  and  _419
REMARK  169  A    between atoms: _419  and  _420
REMARK  170  A    between atoms: _420  and  _421
REMARK  171  A    between atoms: _421  and  _422
REMARK  172  A    between atoms: _431  and  _433
REMARK  173  A    between atoms: _433  and  _434
REMARK  174  A    between atoms: _433  and  _436
REMARK  175  A    between atoms: _436  and  _437
REMARK  176  A    between atoms: _442  and  _444
REMARK  177  A    between atoms: _444  and  _445
REMARK  178  A    between atoms: _444  and  _447
REMARK  179  A    between atoms: _447  and  _448
REMARK  180  A    between atoms: _453  and  _454
REMARK  181  A    between atoms: _456  and  _458
REMARK  182  A    between atoms: _458  and  _459
REMARK  183  A    between atoms: _458  and  _461
REMARK  184  A    between atoms: _461  and  _462
REMARK  185  A    between atoms: _462  and  _463
REMARK  186  A    between atoms: _463  and  _464
REMARK  187  A    between atoms: _464  and  _465
REMARK  188  A    between atoms: _469  and  _471
REMARK  189  A    between atoms: _471  and  _472
REMARK  190  A    between atoms: _471  and  _474
REMARK  191  A    between atoms: _474  and  _475
REMARK  192  A    between atoms: _477  and  _479
REMARK  193  A    between atoms: _479  and  _480
REMARK  194  A    between atoms: _479  and  _482
REMARK  195  A    between atoms: _482  and  _483
REMARK  196  A    between atoms: _486  and  _488
REMARK  197  A    between atoms: _488  and  _489
REMARK  198  A    between atoms: _488  and  _491
REMARK  199  A    between atoms: _491  and  _492
REMARK  200  A    between atoms: _492  and  _493
REMARK  201  A    between atoms: _496  and  _498
REMARK  202  A    between atoms: _498  and  _499
REMARK  203  A    between atoms: _502  and  _504
REMARK  204  A    between atoms: _504  and  _505
REMARK  205  A    between atoms: _504  and  _507
REMARK  206  A    between atoms: _507  and  _508
REMARK  207  A    between atoms: _510  and  _512
REMARK  208  A    between atoms: _512  and  _513
REMARK  209  A    between atoms: _515  and  _517
REMARK  210  A    between atoms: _517  and  _518
REMARK  211  A    between atoms: _517  and  _520
REMARK  212  A    between atoms: _520  and  _521
REMARK  213  A    between atoms: _524  and  _526
REMARK  214  A    between atoms: _526  and  _527
REMARK  215  A    between atoms: _529  and  _531
REMARK  216  A    between atoms: _531  and  _532
REMARK  217  A    between atoms: _531  and  _534
REMARK  218  A    between atoms: _534  and  _535
REMARK  219  A    between atoms: _540  and  _542
REMARK  220  A    between atoms: _542  and  _543
REMARK  221  A    between atoms: _542  and  _545
REMARK  222  A    between atoms: _545  and  _546
REMARK  223  A    between atoms: _546  and  _547
REMARK  224  A    between atoms: _554  and  _555
REMARK  225  A    between atoms: _555  and  _571
REMARK  226  A    between atoms: _556  and  _558
REMARK  227  A    between atoms: _558  and  _559
REMARK  228  A    between atoms: _559  and  _560
REMARK  229  A    between atoms: _564  and  _566
REMARK  230  A    between atoms: _566  and  _567
REMARK  231  A    between atoms: _566  and  _574
REMARK  232  A    between atoms: _567  and  _568
REMARK  233  A    between atoms: _568  and  _569
REMARK  234  A    between atoms: _569  and  _570
REMARK  235  A    between atoms: _570  and  _571
REMARK  236  A    between atoms: _576  and  _578
REMARK  237  A    between atoms: _578  and  _579
REMARK  238  A    between atoms: _578  and  _581
REMARK  239  A    between atoms: _581  and  _582
REMARK  240  A    between atoms: _585  and  _587
REMARK  241  A    between atoms: _587  and  _588
REMARK  242  A    between atoms: _590  and  _592
REMARK  243  A    between atoms: _592  and  _593
REMARK  244  A    between atoms: _596  and  _598
REMARK  245  A    between atoms: _598  and  _599
REMARK  246  A    between atoms: _598  and  _601
REMARK  247  A    between atoms: _601  and  _602
REMARK  248  A    between atoms: _607  and  _608
REMARK                            x       y       z     vdW  Elec       q    Type
REMARK                         _______ _______ _______ _____ _____    ______ ____
ROOT
ATOM      1  O   HOH     1      38.729  24.090  22.518  0.00  0.00    +0.000 OA
ENDROOT
TORSDOF 0
REMARK  Name = ../refined-set-2016/4el5/4el5_pocket.pdb
REMARK  248 active torsions:
REMARK  status: ('A' for Active; 'I' for Inactive)
REMARK    1  A    between atoms: _1  and  _3
REMARK    2  A    between atoms: _3  and  _4
REMARK    3  A    between atoms: _3  and  _6
REMARK    4  A    between atoms: _6  and  _7
REMARK    5  A    between atoms: _12  and  _13
REMARK    6  A    between atoms: _15  and  _17
REMARK    7  A    between atoms: _17  and  _18
REMARK    8  A    between atoms: _17  and  _20
REMARK    9  A    between atoms: _20  and  _21
REMARK   10  A    between atoms: _21  and  _22
REMARK   11  A    between atoms: _25  and  _27
REMARK   12  A    between atoms: _27  and  _28
REMARK   13  A    between atoms: _27  and  _30
REMARK   14  A    between atoms: _30  and  _31
REMARK   15  A    between atoms: _36  and  _38
REMARK   16  A    between atoms: _38  and  _39
REMARK   17  A    between atoms: _41  and  _43
REMARK   18  A    between atoms: _43  and  _44
REMARK   19  A    between atoms: _46  and  _48
REMARK   20  A    between atoms: _48  and  _49
REMARK   21  A    between atoms: _48  and  _51
REMARK   22  A    between atoms: _51  and  _52
REMARK   23  A    between atoms: _55  and  _57
REMARK   24  A    between atoms: _57  and  _58
REMARK   25  A    between atoms: _60  and  _62
REMARK   26  A    between atoms: _62  and  _63
REMARK   27  A    between atoms: _62  and  _65
REMARK   28  A    between atoms: _65  and  _66
REMARK   29  A    between atoms: _66  and  _67
REMARK   30  A    between atoms: _67  and  _68
REMARK   31  A    between atoms: _77  and  _79
REMARK   32  A    between atoms: _79  and  _80
REMARK   33  A    between atoms: _79  and  _82
REMARK   34  A    between atoms: _82  and  _83
REMARK   35  A    between atoms: _86  and  _88
REMARK   36  A    between atoms: _88  and  _89
REMARK   37  A    between atoms: _92  and  _94
REMARK   38  A    between atoms: _94  and  _95
REMARK   39  A    between atoms: _94  and  _97
REMARK   40  A    between atoms: _97  and  _98
REMARK   41  A    between atoms: _104  and  _106
REMARK   42  A    between atoms: _106  and  _107
REMARK   43  A    between atoms: _106  and  _109
REMARK   44  A    between atoms: _109  and  _110
REMARK   45  A    between atoms: _115  and  _117
REMARK   46  A    between atoms: _117  and  _118
REMARK   47  A    between atoms: _117  and  _120
REMARK   48  A    between atoms: _120  and  _121
REMARK   49  A    between atoms: _124  and  _126
REMARK   50  A    between atoms: _126  and  _127
REMARK   51  A    between atoms: _126  and  _129
REMARK   52  A    between atoms: _129  and  _130
REMARK   53  A    between atoms: _135  and  _137
REMARK   54  A    between atoms: _137  and  _138
REMARK   55  A    between atoms: _137  and  _140
REMARK   56  A    between atoms: _140  and  _141
REMARK   57  A    between atoms: _147  and  _149
REMARK   58  A    between atoms: _149  and  _150
REMARK   59  A    between atoms: _149  and  _152
REMARK   60  A    between atoms: _152  and  _153
REMARK   61  A    between atoms: _159  and  _161
REMARK   62  A    between atoms: _161  and  _162
REMARK   63  A    between atoms: _161  and  _164
REMARK   64  A    between atoms: _164  and  _165
REMARK   65  A    between atoms: _165  and  _166
REMARK   66  A    between atoms: _166  and  _167
REMARK   67  A    between atoms: _176  and  _178
REMARK   68  A    between atoms: _178  and  _179
REMARK   69  A    between atoms: _178  and  _181
REMARK   70  A    between atoms: _181  and  _182
REMARK   71  A    between atoms: _187  and  _189
REMARK   72  A    between atoms: _189  and  _190
REMARK   73  A    between atoms: _189  and  _192
REMARK   74  A    between atoms: _192  and  _193
REMARK   75  A    between atoms: _196  and  _198
REMARK   76  A    between atoms: _198  and  _199
REMARK   77  A    between atoms: _198  and  _201
REMARK   78  A    between atoms: _201  and  _202
REMARK   79  A    between atoms: _205  and  _207
REMARK   80  A    between atoms: _207  and  _208
REMARK   81  A    between atoms: _207  and  _210
REMARK   82  A    between atoms: _210  and  _211
REMARK   83  A    between atoms: _216  and  _218
REMARK   84  A    between atoms: _218  and  _219
REMARK   85  A    between atoms: _218  and  _221
REMARK   86  A    between atoms: _221  and  _222
REMARK   87  A    between atoms: _227  and  _228
REMARK   88  A    between atoms: _230  and  _232
REMARK   89  A    between atoms: _232  and  _233
REMARK   90  A    between atoms: _232  and  _235
REMARK   91  A    between atoms: _235  and  _236
REMARK   92  A    between atoms: _239  and  _241
REMARK   93  A    between atoms: _241  and  _242
REMARK   94  A    between atoms: _241  and  _244
REMARK   95  A    between atoms: _244  and  _245
REMARK   96  A    between atoms: _250  and  _252
REMARK   97  A    between atoms: _252  and  _253
REMARK   98  A    between atoms: _252  and  _255
REMARK   99  A    between atoms: _255  and  _256
REMARK  100  A    between atoms: _261  and  _263
REMARK  101  A    between atoms: _263  and  _264
REMARK  102  A    between atoms: _263  and  _266
REMARK  103  A    between atoms: _266  and  _267
REMARK  104  A    between atoms: _270  and  _272
REMARK  105  A    between atoms: _272  and  _273
REMARK  106  A    between atoms: _272  and  _275
REMARK  107  A    between atoms: _278  and  _280
REMARK  108  A    between atoms: _280  and  _281
REMARK  109  A    between atoms: _280  and  _283
REMARK  110  A    between atoms: _283  and  _284
REMARK  111  A    between atoms: _287  and  _289
REMARK  112  A    between atoms: _289  and  _290
REMARK  113  A    between atoms: _289  and  _292
REMARK  114  A    between atoms: _292  and  _293
REMARK  115  A    between atoms: _293  and  _294
REMARK  116  A    between atoms: _297  and  _299
REMARK  117  A    between atoms: _299  and  _300
REMARK  118  A    between atoms: _303  and  _305
REMARK  119  A    between atoms: _305  and  _306
REMARK  120  A    between atoms: _305  and  _308
REMARK  121  A    between atoms: _308  and  _309
REMARK  122  A    between atoms: _312  and  _314
REMARK  123  A    between atoms: _314  and  _315
REMARK  124  A    between atoms: _314  and  _317
REMARK  125  A    between atoms: _317  and  _318
REMARK  126  A    between atoms: _318  and  _319
REMARK  127  A    between atoms: _322  and  _324
REMARK  128  A    between atoms: _324  and  _325
REMARK  129  A    between atoms: _324  and  _327
REMARK  130  A    between atoms: _327  and  _328
REMARK  131  A    between atoms: _333  and  _335
REMARK  132  A    between atoms: _335  and  _336
REMARK  133  A    between atoms: _338  and  _340
REMARK  134  A    between atoms: _340  and  _341
REMARK  135  A    between atoms: _340  and  _343
REMARK  136  A    between atoms: _346  and  _348
REMARK  137  A    between atoms: _348  and  _349
REMARK  138  A    between atoms: _352  and  _354
REMARK  139  A    between atoms: _354  and  _355
REMARK  140  A    between atoms: _354  and  _357
REMARK  141  A    between atoms: _357  and  _358
REMARK  142  A    between atoms: _363  and  _365
REMARK  143  A    between atoms: _365  and  _366
REMARK  144  A    between atoms: _365  and  _368
REMARK  145  A    between atoms: _368  and  _369
REMARK  146  A    between atoms: _369  and  _370
REMARK  147  A    between atoms: _370  and  _371
REMARK  148  A    between atoms: _371  and  _372
REMARK  149  A    between atoms: _376  and  _378
REMARK  150  A    between atoms: _378  and  _379
REMARK  151  A    between atoms: _378  and  _381
REMARK  152  A    between atoms: _381  and  _382
REMARK  153  A    between atoms: _385  and  _387
REMARK  154  A    between atoms: _387  and  _388
REMARK  155  A    between atoms: _387  and  _390
REMARK  156  A    between atoms: _390  and  _391
REMARK  157  A    between atoms: _396  and  _398
REMARK  158  A    between atoms: _398  and  _399
REMARK  159  A    between atoms: _401  and  _403
REMARK  160  A    between atoms: _403  and  _404
REMARK  161  A    between atoms: _403  and  _406
REMARK  162  A    between atoms: _406  and  _407
REMARK  163  A    between atoms: _407  and  _408
REMARK  164  A    between atoms: _408  and  _409
REMARK  165  A    between atoms: _409  and  _410
REMARK  166  A    between atoms: _414  and  _416
REMARK  167  A    between atoms: _416  and  _417
REMARK  168  A    between atoms: _416  and  _419
REMARK  169  A    between atoms: _419  and  _420
REMARK  170  A    between atoms: _420  and  _421
REMARK  171  A    between atoms: _421  and  _422
REMARK  172  A    between atoms: _431  and  _433
REMARK  173  A    between atoms: _433  and  _434
REMARK  174  A    between atoms: _433  and  _436
REMARK  175  A    between atoms: _436  and  _437
REMARK  176  A    between atoms: _442  and  _444
REMARK  177  A    between atoms: _444  and  _445
REMARK  178  A    between atoms: _444  and  _447
REMARK  179  A    between atoms: _447  and  _448
REMARK  180  A    between atoms: _453  and  _454
REMARK  181  A    between atoms: _456  and  _458
REMARK  182  A    between atoms: _458  and  _459
REMARK  183  A    between atoms: _458  and  _461
REMARK  184  A    between atoms: _461  and  _462
REMARK  185  A    between atoms: _462  and  _463
REMARK  186  A    between atoms: _463  and  _464
REMARK  187  A    between atoms: _464  and  _465
REMARK  188  A    between atoms: _469  and  _471
REMARK  189  A    between atoms: _471  and  _472
REMARK  190  A    between atoms: _471  and  _474
REMARK  191  A    between atoms: _474  and  _475
REMARK  192  A    between atoms: _477  and  _479
REMARK  193  A    between atoms: _479  and  _480
REMARK  194  A    between atoms: _479  and  _482
REMARK  195  A    between atoms: _482  and  _483
REMARK  196  A    between atoms: _486  and  _488
REMARK  197  A    between atoms: _488  and  _489
REMARK  198  A    between atoms: _488  and  _491
REMARK  199  A    between atoms: _491  and  _492
REMARK  200  A    between atoms: _492  and  _493
REMARK  201  A    between atoms: _496  and  _498
REMARK  202  A    between atoms: _498  and  _499
REMARK  203  A    between atoms: _502  and  _504
REMARK  204  A    between atoms: _504  and  _505
REMARK  205  A    between atoms: _504  and  _507
REMARK  206  A    between atoms: _507  and  _508
REMARK  207  A    between atoms: _510  and  _512
REMARK  208  A    between atoms: _512  and  _513
REMARK  209  A    between atoms: _515  and  _517
REMARK  210  A    between atoms: _517  and  _518
REMARK  211  A    between atoms: _517  and  _520
REMARK  212  A    between atoms: _520  and  _521
REMARK  213  A    between atoms: _524  and  _526
REMARK  214  A    between atoms: _526  and  _527
REMARK  215  A    between atoms: _529  and  _531
REMARK  216  A    between atoms: _531  and  _532
REMARK  217  A    between atoms: _531  and  _534
REMARK  218  A    between atoms: _534  and  _535
REMARK  219  A    between atoms: _540  and  _542
REMARK  220  A    between atoms: _542  and  _543
REMARK  221  A    between atoms: _542  and  _545
REMARK  222  A    between atoms: _545  and  _546
REMARK  223  A    between atoms: _546  and  _547
REMARK  224  A    between atoms: _554  and  _555
REMARK  225  A    between atoms: _555  and  _571
REMARK  226  A    between atoms: _556  and  _558
REMARK  227  A    between atoms: _558  and  _559
REMARK  228  A    between atoms: _559  and  _560
REMARK  229  A    between atoms: _564  and  _566
REMARK  230  A    between atoms: _566  and  _567
REMARK  231  A    between atoms: _566  and  _574
REMARK  232  A    between atoms: _567  and  _568
REMARK  233  A    between atoms: _568  and  _569
REMARK  234  A    between atoms: _569  and  _570
REMARK  235  A    between atoms: _570  and  _571
REMARK  236  A    between atoms: _576  and  _578
REMARK  237  A    between atoms: _578  and  _579
REMARK  238  A    between atoms: _578  and  _581
REMARK  239  A    between atoms: _581  and  _582
REMARK  240  A    between atoms: _585  and  _587
REMARK  241  A    between atoms: _587  and  _588
REMARK  242  A    between atoms: _590  and  _592
REMARK  243  A    between atoms: _592  and  _593
REMARK  244  A    between atoms: _596  and  _598
REMARK  245  A    between atoms: _598  and  _599
REMARK  246  A    between atoms: _598  and  _601
REMARK  247  A    between atoms: _601  and  _602
REMARK  248  A    between atoms: _607  and  _608
REMARK                            x       y       z     vdW  Elec       q    Type
REMARK                         _______ _______ _______ _____ _____    ______ ____
ROOT
ATOM      1  O   HOH     1      41.039  26.358  37.463  0.00  0.00    +0.000 OA
ENDROOT
TORSDOF 0
REMARK  Name = ../refined-set-2016/4el5/4el5_pocket.pdb
REMARK  248 active torsions:
REMARK  status: ('A' for Active; 'I' for Inactive)
REMARK    1  A    between atoms: _1  and  _3
REMARK    2  A    between atoms: _3  and  _4
REMARK    3  A    between atoms: _3  and  _6
REMARK    4  A    between atoms: _6  and  _7
REMARK    5  A    between atoms: _12  and  _13
REMARK    6  A    between atoms: _15  and  _17
REMARK    7  A    between atoms: _17  and  _18
REMARK    8  A    between atoms: _17  and  _20
REMARK    9  A    between atoms: _20  and  _21
REMARK   10  A    between atoms: _21  and  _22
REMARK   11  A    between atoms: _25  and  _27
REMARK   12  A    between atoms: _27  and  _28
REMARK   13  A    between atoms: _27  and  _30
REMARK   14  A    between atoms: _30  and  _31
REMARK   15  A    between atoms: _36  and  _38
REMARK   16  A    between atoms: _38  and  _39
REMARK   17  A    between atoms: _41  and  _43
REMARK   18  A    between atoms: _43  and  _44
REMARK   19  A    between atoms: _46  and  _48
REMARK   20  A    between atoms: _48  and  _49
REMARK   21  A    between atoms: _48  and  _51
REMARK   22  A    between atoms: _51  and  _52
REMARK   23  A    between atoms: _55  and  _57
REMARK   24  A    between atoms: _57  and  _58
REMARK   25  A    between atoms: _60  and  _62
REMARK   26  A    between atoms: _62  and  _63
REMARK   27  A    between atoms: _62  and  _65
REMARK   28  A    between atoms: _65  and  _66
REMARK   29  A    between atoms: _66  and  _67
REMARK   30  A    between atoms: _67  and  _68
REMARK   31  A    between atoms: _77  and  _79
REMARK   32  A    between atoms: _79  and  _80
REMARK   33  A    between atoms: _79  and  _82
REMARK   34  A    between atoms: _82  and  _83
REMARK   35  A    between atoms: _86  and  _88
REMARK   36  A    between atoms: _88  and  _89
REMARK   37  A    between atoms: _92  and  _94
REMARK   38  A    between atoms: _94  and  _95
REMARK   39  A    between atoms: _94  and  _97
REMARK   40  A    between atoms: _97  and  _98
REMARK   41  A    between atoms: _104  and  _106
REMARK   42  A    between atoms: _106  and  _107
REMARK   43  A    between atoms: _106  and  _109
REMARK   44  A    between atoms: _109  and  _110
REMARK   45  A    between atoms: _115  and  _117
REMARK   46  A    between atoms: _117  and  _118
REMARK   47  A    between atoms: _117  and  _120
REMARK   48  A    between atoms: _120  and  _121
REMARK   49  A    between atoms: _124  and  _126
REMARK   50  A    between atoms: _126  and  _127
REMARK   51  A    between atoms: _126  and  _129
REMARK   52  A    between atoms: _129  and  _130
REMARK   53  A    between atoms: _135  and  _137
REMARK   54  A    between atoms: _137  and  _138
REMARK   55  A    between atoms: _137  and  _140
REMARK   56  A    between atoms: _140  and  _141
REMARK   57  A    between atoms: _147  and  _149
REMARK   58  A    between atoms: _149  and  _150
REMARK   59  A    between atoms: _149  and  _152
REMARK   60  A    between atoms: _152  and  _153
REMARK   61  A    between atoms: _159  and  _161
REMARK   62  A    between atoms: _161  and  _162
REMARK   63  A    between atoms: _161  and  _164
REMARK   64  A    between atoms: _164  and  _165
REMARK   65  A    between atoms: _165  and  _166
REMARK   66  A    between atoms: _166  and  _167
REMARK   67  A    between atoms: _176  and  _178
REMARK   68  A    between atoms: _178  and  _179
REMARK   69  A    between atoms: _178  and  _181
REMARK   70  A    between atoms: _181  and  _182
REMARK   71  A    between atoms: _187  and  _189
REMARK   72  A    between atoms: _189  and  _190
REMARK   73  A    between atoms: _189  and  _192
REMARK   74  A    between atoms: _192  and  _193
REMARK   75  A    between atoms: _196  and  _198
REMARK   76  A    between atoms: _198  and  _199
REMARK   77  A    between atoms: _198  and  _201
REMARK   78  A    between atoms: _201  and  _202
REMARK   79  A    between atoms: _205  and  _207
REMARK   80  A    between atoms: _207  and  _208
REMARK   81  A    between atoms: _207  and  _210
REMARK   82  A    between atoms: _210  and  _211
REMARK   83  A    between atoms: _216  and  _218
REMARK   84  A    between atoms: _218  and  _219
REMARK   85  A    between atoms: _218  and  _221
REMARK   86  A    between atoms: _221  and  _222
REMARK   87  A    between atoms: _227  and  _228
REMARK   88  A    between atoms: _230  and  _232
REMARK   89  A    between atoms: _232  and  _233
REMARK   90  A    between atoms: _232  and  _235
REMARK   91  A    between atoms: _235  and  _236
REMARK   92  A    between atoms: _239  and  _241
REMARK   93  A    between atoms: _241  and  _242
REMARK   94  A    between atoms: _241  and  _244
REMARK   95  A    between atoms: _244  and  _245
REMARK   96  A    between atoms: _250  and  _252
REMARK   97  A    between atoms: _252  and  _253
REMARK   98  A    between atoms: _252  and  _255
REMARK   99  A    between atoms: _255  and  _256
REMARK  100  A    between atoms: _261  and  _263
REMARK  101  A    between atoms: _263  and  _264
REMARK  102  A    between atoms: _263  and  _266
REMARK  103  A    between atoms: _266  and  _267
REMARK  104  A    between atoms: _270  and  _272
REMARK  105  A    between atoms: _272  and  _273
REMARK  106  A    between atoms: _272  and  _275
REMARK  107  A    between atoms: _278  and  _280
REMARK  108  A    between atoms: _280  and  _281
REMARK  109  A    between atoms: _280  and  _283
REMARK  110  A    between atoms: _283  and  _284
REMARK  111  A    between atoms: _287  and  _289
REMARK  112  A    between atoms: _289  and  _290
REMARK  113  A    between atoms: _289  and  _292
REMARK  114  A    between atoms: _292  and  _293
REMARK  115  A    between atoms: _293  and  _294
REMARK  116  A    between atoms: _297  and  _299
REMARK  117  A    between atoms: _299  and  _300
REMARK  118  A    between atoms: _303  and  _305
REMARK  119  A    between atoms: _305  and  _306
REMARK  120  A    between atoms: _305  and  _308
REMARK  121  A    between atoms: _308  and  _309
REMARK  122  A    between atoms: _312  and  _314
REMARK  123  A    between atoms: _314  and  _315
REMARK  124  A    between atoms: _314  and  _317
REMARK  125  A    between atoms: _317  and  _318
REMARK  126  A    between atoms: _318  and  _319
REMARK  127  A    between atoms: _322  and  _324
REMARK  128  A    between atoms: _324  and  _325
REMARK  129  A    between atoms: _324  and  _327
REMARK  130  A    between atoms: _327  and  _328
REMARK  131  A    between atoms: _333  and  _335
REMARK  132  A    between atoms: _335  and  _336
REMARK  133  A    between atoms: _338  and  _340
REMARK  134  A    between atoms: _340  and  _341
REMARK  135  A    between atoms: _340  and  _343
REMARK  136  A    between atoms: _346  and  _348
REMARK  137  A    between atoms: _348  and  _349
REMARK  138  A    between atoms: _352  and  _354
REMARK  139  A    between atoms: _354  and  _355
REMARK  140  A    between atoms: _354  and  _357
REMARK  141  A    between atoms: _357  and  _358
REMARK  142  A    between atoms: _363  and  _365
REMARK  143  A    between atoms: _365  and  _366
REMARK  144  A    between atoms: _365  and  _368
REMARK  145  A    between atoms: _368  and  _369
REMARK  146  A    between atoms: _369  and  _370
REMARK  147  A    between atoms: _370  and  _371
REMARK  148  A    between atoms: _371  and  _372
REMARK  149  A    between atoms: _376  and  _378
REMARK  150  A    between atoms: _378  and  _379
REMARK  151  A    between atoms: _378  and  _381
REMARK  152  A    between atoms: _381  and  _382
REMARK  153  A    between atoms: _385  and  _387
REMARK  154  A    between atoms: _387  and  _388
REMARK  155  A    between atoms: _387  and  _390
REMARK  156  A    between atoms: _390  and  _391
REMARK  157  A    between atoms: _396  and  _398
REMARK  158  A    between atoms: _398  and  _399
REMARK  159  A    between atoms: _401  and  _403
REMARK  160  A    between atoms: _403  and  _404
REMARK  161  A    between atoms: _403  and  _406
REMARK  162  A    between atoms: _406  and  _407
REMARK  163  A    between atoms: _407  and  _408
REMARK  164  A    between atoms: _408  and  _409
REMARK  165  A    between atoms: _409  and  _410
REMARK  166  A    between atoms: _414  and  _416
REMARK  167  A    between atoms: _416  and  _417
REMARK  168  A    between atoms: _416  and  _419
REMARK  169  A    between atoms: _419  and  _420
REMARK  170  A    between atoms: _420  and  _421
REMARK  171  A    between atoms: _421  and  _422
REMARK  172  A    between atoms: _431  and  _433
REMARK  173  A    between atoms: _433  and  _434
REMARK  174  A    between atoms: _433  and  _436
REMARK  175  A    between atoms: _436  and  _437
REMARK  176  A    between atoms: _442  and  _444
REMARK  177  A    between atoms: _444  and  _445
REMARK  178  A    between atoms: _444  and  _447
REMARK  179  A    between atoms: _447  and  _448
REMARK  180  A    between atoms: _453  and  _454
REMARK  181  A    between atoms: _456  and  _458
REMARK  182  A    between atoms: _458  and  _459
REMARK  183  A    between atoms: _458  and  _461
REMARK  184  A    between atoms: _461  and  _462
REMARK  185  A    between atoms: _462  and  _463
REMARK  186  A    between atoms: _463  and  _464
REMARK  187  A    between atoms: _464  and  _465
REMARK  188  A    between atoms: _469  and  _471
REMARK  189  A    between atoms: _471  and  _472
REMARK  190  A    between atoms: _471  and  _474
REMARK  191  A    between atoms: _474  and  _475
REMARK  192  A    between atoms: _477  and  _479
REMARK  193  A    between atoms: _479  and  _480
REMARK  194  A    between atoms: _479  and  _482
REMARK  195  A    between atoms: _482  and  _483
REMARK  196  A    between atoms: _486  and  _488
REMARK  197  A    between atoms: _488  and  _489
REMARK  198  A    between atoms: _488  and  _491
REMARK  199  A    between atoms: _491  and  _492
REMARK  200  A    between atoms: _492  and  _493
REMARK  201  A    between atoms: _496  and  _498
REMARK  202  A    between atoms: _498  and  _499
REMARK  203  A    between atoms: _502  and  _504
REMARK  204  A    between atoms: _504  and  _505
REMARK  205  A    between atoms: _504  and  _507
REMARK  206  A    between atoms: _507  and  _508
REMARK  207  A    between atoms: _510  and  _512
REMARK  208  A    between atoms: _512  and  _513
REMARK  209  A    between atoms: _515  and  _517
REMARK  210  A    between atoms: _517  and  _518
REMARK  211  A    between atoms: _517  and  _520
REMARK  212  A    between atoms: _520  and  _521
REMARK  213  A    between atoms: _524  and  _526
REMARK  214  A    between atoms: _526  and  _527
REMARK  215  A    between atoms: _529  and  _531
REMARK  216  A    between atoms: _531  and  _532
REMARK  217  A    between atoms: _531  and  _534
REMARK  218  A    between atoms: _534  and  _535
REMARK  219  A    between atoms: _540  and  _542
REMARK  220  A    between atoms: _542  and  _543
REMARK  221  A    between atoms: _542  and  _545
REMARK  222  A    between atoms: _545  and  _546
REMARK  223  A    between atoms: _546  and  _547
REMARK  224  A    between atoms: _554  and  _555
REMARK  225  A    between atoms: _555  and  _571
REMARK  226  A    between atoms: _556  and  _558
REMARK  227  A    between atoms: _558  and  _559
REMARK  228  A    between atoms: _559  and  _560
REMARK  229  A    between atoms: _564  and  _566
REMARK  230  A    between atoms: _566  and  _567
REMARK  231  A    between atoms: _566  and  _574
REMARK  232  A    between atoms: _567  and  _568
REMARK  233  A    between atoms: _568  and  _569
REMARK  234  A    between atoms: _569  and  _570
REMARK  235  A    between atoms: _570  and  _571
REMARK  236  A    between atoms: _576  and  _578
REMARK  237  A    between atoms: _578  and  _579
REMARK  238  A    between atoms: _578  and  _581
REMARK  239  A    between atoms: _581  and  _582
REMARK  240  A    between atoms: _585  and  _587
REMARK  241  A    between atoms: _587  and  _588
REMARK  242  A    between atoms: _590  and  _592
REMARK  243  A    between atoms: _592  and  _593
REMARK  244  A    between atoms: _596  and  _598
REMARK  245  A    between atoms: _598  and  _599
REMARK  246  A    between atoms: _598  and  _601
REMARK  247  A    between atoms: _601  and  _602
REMARK  248  A    between atoms: _607  and  _608
REMARK                            x       y       z     vdW  Elec       q    Type
REMARK                         _______ _______ _______ _____ _____    ______ ____
ROOT
ATOM      1  O   HOH     1      36.689  22.276  18.097  0.00  0.00    +0.000 OA
ENDROOT
TORSDOF 0
REMARK  Name = ../refined-set-2016/4el5/4el5_pocket.pdb
REMARK  248 active torsions:
REMARK  status: ('A' for Active; 'I' for Inactive)
REMARK    1  A    between atoms: _1  and  _3
REMARK    2  A    between atoms: _3  and  _4
REMARK    3  A    between atoms: _3  and  _6
REMARK    4  A    between atoms: _6  and  _7
REMARK    5  A    between atoms: _12  and  _13
REMARK    6  A    between atoms: _15  and  _17
REMARK    7  A    between atoms: _17  and  _18
REMARK    8  A    between atoms: _17  and  _20
REMARK    9  A    between atoms: _20  and  _21
REMARK   10  A    between atoms: _21  and  _22
REMARK   11  A    between atoms: _25  and  _27
REMARK   12  A    between atoms: _27  and  _28
REMARK   13  A    between atoms: _27  and  _30
REMARK   14  A    between atoms: _30  and  _31
REMARK   15  A    between atoms: _36  and  _38
REMARK   16  A    between atoms: _38  and  _39
REMARK   17  A    between atoms: _41  and  _43
REMARK   18  A    between atoms: _43  and  _44
REMARK   19  A    between atoms: _46  and  _48
REMARK   20  A    between atoms: _48  and  _49
REMARK   21  A    between atoms: _48  and  _51
REMARK   22  A    between atoms: _51  and  _52
REMARK   23  A    between atoms: _55  and  _57
REMARK   24  A    between atoms: _57  and  _58
REMARK   25  A    between atoms: _60  and  _62
REMARK   26  A    between atoms: _62  and  _63
REMARK   27  A    between atoms: _62  and  _65
REMARK   28  A    between atoms: _65  and  _66
REMARK   29  A    between atoms: _66  and  _67
REMARK   30  A    between atoms: _67  and  _68
REMARK   31  A    between atoms: _77  and  _79
REMARK   32  A    between atoms: _79  and  _80
REMARK   33  A    between atoms: _79  and  _82
REMARK   34  A    between atoms: _82  and  _83
REMARK   35  A    between atoms: _86  and  _88
REMARK   36  A    between atoms: _88  and  _89
REMARK   37  A    between atoms: _92  and  _94
REMARK   38  A    between atoms: _94  and  _95
REMARK   39  A    between atoms: _94  and  _97
REMARK   40  A    between atoms: _97  and  _98
REMARK   41  A    between atoms: _104  and  _106
REMARK   42  A    between atoms: _106  and  _107
REMARK   43  A    between atoms: _106  and  _109
REMARK   44  A    between atoms: _109  and  _110
REMARK   45  A    between atoms: _115  and  _117
REMARK   46  A    between atoms: _117  and  _118
REMARK   47  A    between atoms: _117  and  _120
REMARK   48  A    between atoms: _120  and  _121
REMARK   49  A    between atoms: _124  and  _126
REMARK   50  A    between atoms: _126  and  _127
REMARK   51  A    between atoms: _126  and  _129
REMARK   52  A    between atoms: _129  and  _130
REMARK   53  A    between atoms: _135  and  _137
REMARK   54  A    between atoms: _137  and  _138
REMARK   55  A    between atoms: _137  and  _140
REMARK   56  A    between atoms: _140  and  _141
REMARK   57  A    between atoms: _147  and  _149
REMARK   58  A    between atoms: _149  and  _150
REMARK   59  A    between atoms: _149  and  _152
REMARK   60  A    between atoms: _152  and  _153
REMARK   61  A    between atoms: _159  and  _161
REMARK   62  A    between atoms: _161  and  _162
REMARK   63  A    between atoms: _161  and  _164
REMARK   64  A    between atoms: _164  and  _165
REMARK   65  A    between atoms: _165  and  _166
REMARK   66  A    between atoms: _166  and  _167
REMARK   67  A    between atoms: _176  and  _178
REMARK   68  A    between atoms: _178  and  _179
REMARK   69  A    between atoms: _178  and  _181
REMARK   70  A    between atoms: _181  and  _182
REMARK   71  A    between atoms: _187  and  _189
REMARK   72  A    between atoms: _189  and  _190
REMARK   73  A    between atoms: _189  and  _192
REMARK   74  A    between atoms: _192  and  _193
REMARK   75  A    between atoms: _196  and  _198
REMARK   76  A    between atoms: _198  and  _199
REMARK   77  A    between atoms: _198  and  _201
REMARK   78  A    between atoms: _201  and  _202
REMARK   79  A    between atoms: _205  and  _207
REMARK   80  A    between atoms: _207  and  _208
REMARK   81  A    between atoms: _207  and  _210
REMARK   82  A    between atoms: _210  and  _211
REMARK   83  A    between atoms: _216  and  _218
REMARK   84  A    between atoms: _218  and  _219
REMARK   85  A    between atoms: _218  and  _221
REMARK   86  A    between atoms: _221  and  _222
REMARK   87  A    between atoms: _227  and  _228
REMARK   88  A    between atoms: _230  and  _232
REMARK   89  A    between atoms: _232  and  _233
REMARK   90  A    between atoms: _232  and  _235
REMARK   91  A    between atoms: _235  and  _236
REMARK   92  A    between atoms: _239  and  _241
REMARK   93  A    between atoms: _241  and  _242
REMARK   94  A    between atoms: _241  and  _244
REMARK   95  A    between atoms: _244  and  _245
REMARK   96  A    between atoms: _250  and  _252
REMARK   97  A    between atoms: _252  and  _253
REMARK   98  A    between atoms: _252  and  _255
REMARK   99  A    between atoms: _255  and  _256
REMARK  100  A    between atoms: _261  and  _263
REMARK  101  A    between atoms: _263  and  _264
REMARK  102  A    between atoms: _263  and  _266
REMARK  103  A    between atoms: _266  and  _267
REMARK  104  A    between atoms: _270  and  _272
REMARK  105  A    between atoms: _272  and  _273
REMARK  106  A    between atoms: _272  and  _275
REMARK  107  A    between atoms: _278  and  _280
REMARK  108  A    between atoms: _280  and  _281
REMARK  109  A    between atoms: _280  and  _283
REMARK  110  A    between atoms: _283  and  _284
REMARK  111  A    between atoms: _287  and  _289
REMARK  112  A    between atoms: _289  and  _290
REMARK  113  A    between atoms: _289  and  _292
REMARK  114  A    between atoms: _292  and  _293
REMARK  115  A    between atoms: _293  and  _294
REMARK  116  A    between atoms: _297  and  _299
REMARK  117  A    between atoms: _299  and  _300
REMARK  118  A    between atoms: _303  and  _305
REMARK  119  A    between atoms: _305  and  _306
REMARK  120  A    between atoms: _305  and  _308
REMARK  121  A    between atoms: _308  and  _309
REMARK  122  A    between atoms: _312  and  _314
REMARK  123  A    between atoms: _314  and  _315
REMARK  124  A    between atoms: _314  and  _317
REMARK  125  A    between atoms: _317  and  _318
REMARK  126  A    between atoms: _318  and  _319
REMARK  127  A    between atoms: _322  and  _324
REMARK  128  A    between atoms: _324  and  _325
REMARK  129  A    between atoms: _324  and  _327
REMARK  130  A    between atoms: _327  and  _328
REMARK  131  A    between atoms: _333  and  _335
REMARK  132  A    between atoms: _335  and  _336
REMARK  133  A    between atoms: _338  and  _340
REMARK  134  A    between atoms: _340  and  _341
REMARK  135  A    between atoms: _340  and  _343
REMARK  136  A    between atoms: _346  and  _348
REMARK  137  A    between atoms: _348  and  _349
REMARK  138  A    between atoms: _352  and  _354
REMARK  139  A    between atoms: _354  and  _355
REMARK  140  A    between atoms: _354  and  _357
REMARK  141  A    between atoms: _357  and  _358
REMARK  142  A    between atoms: _363  and  _365
REMARK  143  A    between atoms: _365  and  _366
REMARK  144  A    between atoms: _365  and  _368
REMARK  145  A    between atoms: _368  and  _369
REMARK  146  A    between atoms: _369  and  _370
REMARK  147  A    between atoms: _370  and  _371
REMARK  148  A    between atoms: _371  and  _372
REMARK  149  A    between atoms: _376  and  _378
REMARK  150  A    between atoms: _378  and  _379
REMARK  151  A    between atoms: _378  and  _381
REMARK  152  A    between atoms: _381  and  _382
REMARK  153  A    between atoms: _385  and  _387
REMARK  154  A    between atoms: _387  and  _388
REMARK  155  A    between atoms: _387  and  _390
REMARK  156  A    between atoms: _390  and  _391
REMARK  157  A    between atoms: _396  and  _398
REMARK  158  A    between atoms: _398  and  _399
REMARK  159  A    between atoms: _401  and  _403
REMARK  160  A    between atoms: _403  and  _404
REMARK  161  A    between atoms: _403  and  _406
REMARK  162  A    between atoms: _406  and  _407
REMARK  163  A    between atoms: _407  and  _408
REMARK  164  A    between atoms: _408  and  _409
REMARK  165  A    between atoms: _409  and  _410
REMARK  166  A    between atoms: _414  and  _416
REMARK  167  A    between atoms: _416  and  _417
REMARK  168  A    between atoms: _416  and  _419
REMARK  169  A    between atoms: _419  and  _420
REMARK  170  A    between atoms: _420  and  _421
REMARK  171  A    between atoms: _421  and  _422
REMARK  172  A    between atoms: _431  and  _433
REMARK  173  A    between atoms: _433  and  _434
REMARK  174  A    between atoms: _433  and  _436
REMARK  175  A    between atoms: _436  and  _437
REMARK  176  A    between atoms: _442  and  _444
REMARK  177  A    between atoms: _444  and  _445
REMARK  178  A    between atoms: _444  and  _447
REMARK  179  A    between atoms: _447  and  _448
REMARK  180  A    between atoms: _453  and  _454
REMARK  181  A    between atoms: _456  and  _458
REMARK  182  A    between atoms: _458  and  _459
REMARK  183  A    between atoms: _458  and  _461
REMARK  184  A    between atoms: _461  and  _462
REMARK  185  A    between atoms: _462  and  _463
REMARK  186  A    between atoms: _463  and  _464
REMARK  187  A    between atoms: _464  and  _465
REMARK  188  A    between atoms: _469  and  _471
REMARK  189  A    between atoms: _471  and  _472
REMARK  190  A    between atoms: _471  and  _474
REMARK  191  A    between atoms: _474  and  _475
REMARK  192  A    between atoms: _477  and  _479
REMARK  193  A    between atoms: _479  and  _480
REMARK  194  A    between atoms: _479  and  _482
REMARK  195  A    between atoms: _482  and  _483
REMARK  196  A    between atoms: _486  and  _488
REMARK  197  A    between atoms: _488  and  _489
REMARK  198  A    between atoms: _488  and  _491
REMARK  199  A    between atoms: _491  and  _492
REMARK  200  A    between atoms: _492  and  _493
REMARK  201  A    between atoms: _496  and  _498
REMARK  202  A    between atoms: _498  and  _499
REMARK  203  A    between atoms: _502  and  _504
REMARK  204  A    between atoms: _504  and  _505
REMARK  205  A    between atoms: _504  and  _507
REMARK  206  A    between atoms: _507  and  _508
REMARK  207  A    between atoms: _510  and  _512
REMARK  208  A    between atoms: _512  and  _513
REMARK  209  A    between atoms: _515  and  _517
REMARK  210  A    between atoms: _517  and  _518
REMARK  211  A    between atoms: _517  and  _520
REMARK  212  A    between atoms: _520  and  _521
REMARK  213  A    between atoms: _524  and  _526
REMARK  214  A    between atoms: _526  and  _527
REMARK  215  A    between atoms: _529  and  _531
REMARK  216  A    between atoms: _531  and  _532
REMARK  217  A    between atoms: _531  and  _534
REMARK  218  A    between atoms: _534  and  _535
REMARK  219  A    between atoms: _540  and  _542
REMARK  220  A    between atoms: _542  and  _543
REMARK  221  A    between atoms: _542  and  _545
REMARK  222  A    between atoms: _545  and  _546
REMARK  223  A    between atoms: _546  and  _547
REMARK  224  A    between atoms: _554  and  _555
REMARK  225  A    between atoms: _555  and  _571
REMARK  226  A    between atoms: _556  and  _558
REMARK  227  A    between atoms: _558  and  _559
REMARK  228  A    between atoms: _559  and  _560
REMARK  229  A    between atoms: _564  and  _566
REMARK  230  A    between atoms: _566  and  _567
REMARK  231  A    between atoms: _566  and  _574
REMARK  232  A    between atoms: _567  and  _568
REMARK  233  A    between atoms: _568  and  _569
REMARK  234  A    between atoms: _569  and  _570
REMARK  235  A    between atoms: _570  and  _571
REMARK  236  A    between atoms: _576  and  _578
REMARK  237  A    between atoms: _578  and  _579
REMARK  238  A    between atoms: _578  and  _581
REMARK  239  A    between atoms: _581  and  _582
REMARK  240  A    between atoms: _585  and  _587
REMARK  241  A    between atoms: _587  and  _588
REMARK  242  A    between atoms: _590  and  _592
REMARK  243  A    between atoms: _592  and  _593
REMARK  244  A    between atoms: _596  and  _598
REMARK  245  A    between atoms: _598  and  _599
REMARK  246  A    between atoms: _598  and  _601
REMARK  247  A    between atoms: _601  and  _602
REMARK  248  A    between atoms: _607  and  _608
REMARK                            x       y       z     vdW  Elec       q    Type
REMARK                         _______ _______ _______ _____ _____    ______ ____
ROOT
ATOM      1  O   HOH     1      25.468  27.968  31.970  0.00  0.00    +0.000 OA
ENDROOT
TORSDOF 0
REMARK  Name = ../refined-set-2016/4el5/4el5_pocket.pdb
REMARK  248 active torsions:
REMARK  status: ('A' for Active; 'I' for Inactive)
REMARK    1  A    between atoms: _1  and  _3
REMARK    2  A    between atoms: _3  and  _4
REMARK    3  A    between atoms: _3  and  _6
REMARK    4  A    between atoms: _6  and  _7
REMARK    5  A    between atoms: _12  and  _13
REMARK    6  A    between atoms: _15  and  _17
REMARK    7  A    between atoms: _17  and  _18
REMARK    8  A    between atoms: _17  and  _20
REMARK    9  A    between atoms: _20  and  _21
REMARK   10  A    between atoms: _21  and  _22
REMARK   11  A    between atoms: _25  and  _27
REMARK   12  A    between atoms: _27  and  _28
REMARK   13  A    between atoms: _27  and  _30
REMARK   14  A    between atoms: _30  and  _31
REMARK   15  A    between atoms: _36  and  _38
REMARK   16  A    between atoms: _38  and  _39
REMARK   17  A    between atoms: _41  and  _43
REMARK   18  A    between atoms: _43  and  _44
REMARK   19  A    between atoms: _46  and  _48
REMARK   20  A    between atoms: _48  and  _49
REMARK   21  A    between atoms: _48  and  _51
REMARK   22  A    between atoms: _51  and  _52
REMARK   23  A    between atoms: _55  and  _57
REMARK   24  A    between atoms: _57  and  _58
REMARK   25  A    between atoms: _60  and  _62
REMARK   26  A    between atoms: _62  and  _63
REMARK   27  A    between atoms: _62  and  _65
REMARK   28  A    between atoms: _65  and  _66
REMARK   29  A    between atoms: _66  and  _67
REMARK   30  A    between atoms: _67  and  _68
REMARK   31  A    between atoms: _77  and  _79
REMARK   32  A    between atoms: _79  and  _80
REMARK   33  A    between atoms: _79  and  _82
REMARK   34  A    between atoms: _82  and  _83
REMARK   35  A    between atoms: _86  and  _88
REMARK   36  A    between atoms: _88  and  _89
REMARK   37  A    between atoms: _92  and  _94
REMARK   38  A    between atoms: _94  and  _95
REMARK   39  A    between atoms: _94  and  _97
REMARK   40  A    between atoms: _97  and  _98
REMARK   41  A    between atoms: _104  and  _106
REMARK   42  A    between atoms: _106  and  _107
REMARK   43  A    between atoms: _106  and  _109
REMARK   44  A    between atoms: _109  and  _110
REMARK   45  A    between atoms: _115  and  _117
REMARK   46  A    between atoms: _117  and  _118
REMARK   47  A    between atoms: _117  and  _120
REMARK   48  A    between atoms: _120  and  _121
REMARK   49  A    between atoms: _124  and  _126
REMARK   50  A    between atoms: _126  and  _127
REMARK   51  A    between atoms: _126  and  _129
REMARK   52  A    between atoms: _129  and  _130
REMARK   53  A    between atoms: _135  and  _137
REMARK   54  A    between atoms: _137  and  _138
REMARK   55  A    between atoms: _137  and  _140
REMARK   56  A    between atoms: _140  and  _141
REMARK   57  A    between atoms: _147  and  _149
REMARK   58  A    between atoms: _149  and  _150
REMARK   59  A    between atoms: _149  and  _152
REMARK   60  A    between atoms: _152  and  _153
REMARK   61  A    between atoms: _159  and  _161
REMARK   62  A    between atoms: _161  and  _162
REMARK   63  A    between atoms: _161  and  _164
REMARK   64  A    between atoms: _164  and  _165
REMARK   65  A    between atoms: _165  and  _166
REMARK   66  A    between atoms: _166  and  _167
REMARK   67  A    between atoms: _176  and  _178
REMARK   68  A    between atoms: _178  and  _179
REMARK   69  A    between atoms: _178  and  _181
REMARK   70  A    between atoms: _181  and  _182
REMARK   71  A    between atoms: _187  and  _189
REMARK   72  A    between atoms: _189  and  _190
REMARK   73  A    between atoms: _189  and  _192
REMARK   74  A    between atoms: _192  and  _193
REMARK   75  A    between atoms: _196  and  _198
REMARK   76  A    between atoms: _198  and  _199
REMARK   77  A    between atoms: _198  and  _201
REMARK   78  A    between atoms: _201  and  _202
REMARK   79  A    between atoms: _205  and  _207
REMARK   80  A    between atoms: _207  and  _208
REMARK   81  A    between atoms: _207  and  _210
REMARK   82  A    between atoms: _210  and  _211
REMARK   83  A    between atoms: _216  and  _218
REMARK   84  A    between atoms: _218  and  _219
REMARK   85  A    between atoms: _218  and  _221
REMARK   86  A    between atoms: _221  and  _222
REMARK   87  A    between atoms: _227  and  _228
REMARK   88  A    between atoms: _230  and  _232
REMARK   89  A    between atoms: _232  and  _233
REMARK   90  A    between atoms: _232  and  _235
REMARK   91  A    between atoms: _235  and  _236
REMARK   92  A    between atoms: _239  and  _241
REMARK   93  A    between atoms: _241  and  _242
REMARK   94  A    between atoms: _241  and  _244
REMARK   95  A    between atoms: _244  and  _245
REMARK   96  A    between atoms: _250  and  _252
REMARK   97  A    between atoms: _252  and  _253
REMARK   98  A    between atoms: _252  and  _255
REMARK   99  A    between atoms: _255  and  _256
REMARK  100  A    between atoms: _261  and  _263
REMARK  101  A    between atoms: _263  and  _264
REMARK  102  A    between atoms: _263  and  _266
REMARK  103  A    between atoms: _266  and  _267
REMARK  104  A    between atoms: _270  and  _272
REMARK  105  A    between atoms: _272  and  _273
REMARK  106  A    between atoms: _272  and  _275
REMARK  107  A    between atoms: _278  and  _280
REMARK  108  A    between atoms: _280  and  _281
REMARK  109  A    between atoms: _280  and  _283
REMARK  110  A    between atoms: _283  and  _284
REMARK  111  A    between atoms: _287  and  _289
REMARK  112  A    between atoms: _289  and  _290
REMARK  113  A    between atoms: _289  and  _292
REMARK  114  A    between atoms: _292  and  _293
REMARK  115  A    between atoms: _293  and  _294
REMARK  116  A    between atoms: _297  and  _299
REMARK  117  A    between atoms: _299  and  _300
REMARK  118  A    between atoms: _303  and  _305
REMARK  119  A    between atoms: _305  and  _306
REMARK  120  A    between atoms: _305  and  _308
REMARK  121  A    between atoms: _308  and  _309
REMARK  122  A    between atoms: _312  and  _314
REMARK  123  A    between atoms: _314  and  _315
REMARK  124  A    between atoms: _314  and  _317
REMARK  125  A    between atoms: _317  and  _318
REMARK  126  A    between atoms: _318  and  _319
REMARK  127  A    between atoms: _322  and  _324
REMARK  128  A    between atoms: _324  and  _325
REMARK  129  A    between atoms: _324  and  _327
REMARK  130  A    between atoms: _327  and  _328
REMARK  131  A    between atoms: _333  and  _335
REMARK  132  A    between atoms: _335  and  _336
REMARK  133  A    between atoms: _338  and  _340
REMARK  134  A    between atoms: _340  and  _341
REMARK  135  A    between atoms: _340  and  _343
REMARK  136  A    between atoms: _346  and  _348
REMARK  137  A    between atoms: _348  and  _349
REMARK  138  A    between atoms: _352  and  _354
REMARK  139  A    between atoms: _354  and  _355
REMARK  140  A    between atoms: _354  and  _357
REMARK  141  A    between atoms: _357  and  _358
REMARK  142  A    between atoms: _363  and  _365
REMARK  143  A    between atoms: _365  and  _366
REMARK  144  A    between atoms: _365  and  _368
REMARK  145  A    between atoms: _368  and  _369
REMARK  146  A    between atoms: _369  and  _370
REMARK  147  A    between atoms: _370  and  _371
REMARK  148  A    between atoms: _371  and  _372
REMARK  149  A    between atoms: _376  and  _378
REMARK  150  A    between atoms: _378  and  _379
REMARK  151  A    between atoms: _378  and  _381
REMARK  152  A    between atoms: _381  and  _382
REMARK  153  A    between atoms: _385  and  _387
REMARK  154  A    between atoms: _387  and  _388
REMARK  155  A    between atoms: _387  and  _390
REMARK  156  A    between atoms: _390  and  _391
REMARK  157  A    between atoms: _396  and  _398
REMARK  158  A    between atoms: _398  and  _399
REMARK  159  A    between atoms: _401  and  _403
REMARK  160  A    between atoms: _403  and  _404
REMARK  161  A    between atoms: _403  and  _406
REMARK  162  A    between atoms: _406  and  _407
REMARK  163  A    between atoms: _407  and  _408
REMARK  164  A    between atoms: _408  and  _409
REMARK  165  A    between atoms: _409  and  _410
REMARK  166  A    between atoms: _414  and  _416
REMARK  167  A    between atoms: _416  and  _417
REMARK  168  A    between atoms: _416  and  _419
REMARK  169  A    between atoms: _419  and  _420
REMARK  170  A    between atoms: _420  and  _421
REMARK  171  A    between atoms: _421  and  _422
REMARK  172  A    between atoms: _431  and  _433
REMARK  173  A    between atoms: _433  and  _434
REMARK  174  A    between atoms: _433  and  _436
REMARK  175  A    between atoms: _436  and  _437
REMARK  176  A    between atoms: _442  and  _444
REMARK  177  A    between atoms: _444  and  _445
REMARK  178  A    between atoms: _444  and  _447
REMARK  179  A    between atoms: _447  and  _448
REMARK  180  A    between atoms: _453  and  _454
REMARK  181  A    between atoms: _456  and  _458
REMARK  182  A    between atoms: _458  and  _459
REMARK  183  A    between atoms: _458  and  _461
REMARK  184  A    between atoms: _461  and  _462
REMARK  185  A    between atoms: _462  and  _463
REMARK  186  A    between atoms: _463  and  _464
REMARK  187  A    between atoms: _464  and  _465
REMARK  188  A    between atoms: _469  and  _471
REMARK  189  A    between atoms: _471  and  _472
REMARK  190  A    between atoms: _471  and  _474
REMARK  191  A    between atoms: _474  and  _475
REMARK  192  A    between atoms: _477  and  _479
REMARK  193  A    between atoms: _479  and  _480
REMARK  194  A    between atoms: _479  and  _482
REMARK  195  A    between atoms: _482  and  _483
REMARK  196  A    between atoms: _486  and  _488
REMARK  197  A    between atoms: _488  and  _489
REMARK  198  A    between atoms: _488  and  _491
REMARK  199  A    between atoms: _491  and  _492
REMARK  200  A    between atoms: _492  and  _493
REMARK  201  A    between atoms: _496  and  _498
REMARK  202  A    between atoms: _498  and  _499
REMARK  203  A    between atoms: _502  and  _504
REMARK  204  A    between atoms: _504  and  _505
REMARK  205  A    between atoms: _504  and  _507
REMARK  206  A    between atoms: _507  and  _508
REMARK  207  A    between atoms: _510  and  _512
REMARK  208  A    between atoms: _512  and  _513
REMARK  209  A    between atoms: _515  and  _517
REMARK  210  A    between atoms: _517  and  _518
REMARK  211  A    between atoms: _517  and  _520
REMARK  212  A    between atoms: _520  and  _521
REMARK  213  A    between atoms: _524  and  _526
REMARK  214  A    between atoms: _526  and  _527
REMARK  215  A    between atoms: _529  and  _531
REMARK  216  A    between atoms: _531  and  _532
REMARK  217  A    between atoms: _531  and  _534
REMARK  218  A    between atoms: _534  and  _535
REMARK  219  A    between atoms: _540  and  _542
REMARK  220  A    between atoms: _542  and  _543
REMARK  221  A    between atoms: _542  and  _545
REMARK  222  A    between atoms: _545  and  _546
REMARK  223  A    between atoms: _546  and  _547
REMARK  224  A    between atoms: _554  and  _555
REMARK  225  A    between atoms: _555  and  _571
REMARK  226  A    between atoms: _556  and  _558
REMARK  227  A    between atoms: _558  and  _559
REMARK  228  A    between atoms: _559  and  _560
REMARK  229  A    between atoms: _564  and  _566
REMARK  230  A    between atoms: _566  and  _567
REMARK  231  A    between atoms: _566  and  _574
REMARK  232  A    between atoms: _567  and  _568
REMARK  233  A    between atoms: _568  and  _569
REMARK  234  A    between atoms: _569  and  _570
REMARK  235  A    between atoms: _570  and  _571
REMARK  236  A    between atoms: _576  and  _578
REMARK  237  A    between atoms: _578  and  _579
REMARK  238  A    between atoms: _578  and  _581
REMARK  239  A    between atoms: _581  and  _582
REMARK  240  A    between atoms: _585  and  _587
REMARK  241  A    between atoms: _587  and  _588
REMARK  242  A    between atoms: _590  and  _592
REMARK  243  A    between atoms: _592  and  _593
REMARK  244  A    between atoms: _596  and  _598
REMARK  245  A    between atoms: _598  and  _599
REMARK  246  A    between atoms: _598  and  _601
REMARK  247  A    between atoms: _601  and  _602
REMARK  248  A    between atoms: _607  and  _608
REMARK                            x       y       z     vdW  Elec       q    Type
REMARK                         _______ _______ _______ _____ _____    ______ ____
ROOT
ATOM      1  O   HOH     1      29.628  26.051  18.194  0.00  0.00    +0.000 OA
ENDROOT
TORSDOF 0
REMARK  Name = ../refined-set-2016/4el5/4el5_pocket.pdb
REMARK  248 active torsions:
REMARK  status: ('A' for Active; 'I' for Inactive)
REMARK    1  A    between atoms: _1  and  _3
REMARK    2  A    between atoms: _3  and  _4
REMARK    3  A    between atoms: _3  and  _6
REMARK    4  A    between atoms: _6  and  _7
REMARK    5  A    between atoms: _12  and  _13
REMARK    6  A    between atoms: _15  and  _17
REMARK    7  A    between atoms: _17  and  _18
REMARK    8  A    between atoms: _17  and  _20
REMARK    9  A    between atoms: _20  and  _21
REMARK   10  A    between atoms: _21  and  _22
REMARK   11  A    between atoms: _25  and  _27
REMARK   12  A    between atoms: _27  and  _28
REMARK   13  A    between atoms: _27  and  _30
REMARK   14  A    between atoms: _30  and  _31
REMARK   15  A    between atoms: _36  and  _38
REMARK   16  A    between atoms: _38  and  _39
REMARK   17  A    between atoms: _41  and  _43
REMARK   18  A    between atoms: _43  and  _44
REMARK   19  A    between atoms: _46  and  _48
REMARK   20  A    between atoms: _48  and  _49
REMARK   21  A    between atoms: _48  and  _51
REMARK   22  A    between atoms: _51  and  _52
REMARK   23  A    between atoms: _55  and  _57
REMARK   24  A    between atoms: _57  and  _58
REMARK   25  A    between atoms: _60  and  _62
REMARK   26  A    between atoms: _62  and  _63
REMARK   27  A    between atoms: _62  and  _65
REMARK   28  A    between atoms: _65  and  _66
REMARK   29  A    between atoms: _66  and  _67
REMARK   30  A    between atoms: _67  and  _68
REMARK   31  A    between atoms: _77  and  _79
REMARK   32  A    between atoms: _79  and  _80
REMARK   33  A    between atoms: _79  and  _82
REMARK   34  A    between atoms: _82  and  _83
REMARK   35  A    between atoms: _86  and  _88
REMARK   36  A    between atoms: _88  and  _89
REMARK   37  A    between atoms: _92  and  _94
REMARK   38  A    between atoms: _94  and  _95
REMARK   39  A    between atoms: _94  and  _97
REMARK   40  A    between atoms: _97  and  _98
REMARK   41  A    between atoms: _104  and  _106
REMARK   42  A    between atoms: _106  and  _107
REMARK   43  A    between atoms: _106  and  _109
REMARK   44  A    between atoms: _109  and  _110
REMARK   45  A    between atoms: _115  and  _117
REMARK   46  A    between atoms: _117  and  _118
REMARK   47  A    between atoms: _117  and  _120
REMARK   48  A    between atoms: _120  and  _121
REMARK   49  A    between atoms: _124  and  _126
REMARK   50  A    between atoms: _126  and  _127
REMARK   51  A    between atoms: _126  and  _129
REMARK   52  A    between atoms: _129  and  _130
REMARK   53  A    between atoms: _135  and  _137
REMARK   54  A    between atoms: _137  and  _138
REMARK   55  A    between atoms: _137  and  _140
REMARK   56  A    between atoms: _140  and  _141
REMARK   57  A    between atoms: _147  and  _149
REMARK   58  A    between atoms: _149  and  _150
REMARK   59  A    between atoms: _149  and  _152
REMARK   60  A    between atoms: _152  and  _153
REMARK   61  A    between atoms: _159  and  _161
REMARK   62  A    between atoms: _161  and  _162
REMARK   63  A    between atoms: _161  and  _164
REMARK   64  A    between atoms: _164  and  _165
REMARK   65  A    between atoms: _165  and  _166
REMARK   66  A    between atoms: _166  and  _167
REMARK   67  A    between atoms: _176  and  _178
REMARK   68  A    between atoms: _178  and  _179
REMARK   69  A    between atoms: _178  and  _181
REMARK   70  A    between atoms: _181  and  _182
REMARK   71  A    between atoms: _187  and  _189
REMARK   72  A    between atoms: _189  and  _190
REMARK   73  A    between atoms: _189  and  _192
REMARK   74  A    between atoms: _192  and  _193
REMARK   75  A    between atoms: _196  and  _198
REMARK   76  A    between atoms: _198  and  _199
REMARK   77  A    between atoms: _198  and  _201
REMARK   78  A    between atoms: _201  and  _202
REMARK   79  A    between atoms: _205  and  _207
REMARK   80  A    between atoms: _207  and  _208
REMARK   81  A    between atoms: _207  and  _210
REMARK   82  A    between atoms: _210  and  _211
REMARK   83  A    between atoms: _216  and  _218
REMARK   84  A    between atoms: _218  and  _219
REMARK   85  A    between atoms: _218  and  _221
REMARK   86  A    between atoms: _221  and  _222
REMARK   87  A    between atoms: _227  and  _228
REMARK   88  A    between atoms: _230  and  _232
REMARK   89  A    between atoms: _232  and  _233
REMARK   90  A    between atoms: _232  and  _235
REMARK   91  A    between atoms: _235  and  _236
REMARK   92  A    between atoms: _239  and  _241
REMARK   93  A    between atoms: _241  and  _242
REMARK   94  A    between atoms: _241  and  _244
REMARK   95  A    between atoms: _244  and  _245
REMARK   96  A    between atoms: _250  and  _252
REMARK   97  A    between atoms: _252  and  _253
REMARK   98  A    between atoms: _252  and  _255
REMARK   99  A    between atoms: _255  and  _256
REMARK  100  A    between atoms: _261  and  _263
REMARK  101  A    between atoms: _263  and  _264
REMARK  102  A    between atoms: _263  and  _266
REMARK  103  A    between atoms: _266  and  _267
REMARK  104  A    between atoms: _270  and  _272
REMARK  105  A    between atoms: _272  and  _273
REMARK  106  A    between atoms: _272  and  _275
REMARK  107  A    between atoms: _278  and  _280
REMARK  108  A    between atoms: _280  and  _281
REMARK  109  A    between atoms: _280  and  _283
REMARK  110  A    between atoms: _283  and  _284
REMARK  111  A    between atoms: _287  and  _289
REMARK  112  A    between atoms: _289  and  _290
REMARK  113  A    between atoms: _289  and  _292
REMARK  114  A    between atoms: _292  and  _293
REMARK  115  A    between atoms: _293  and  _294
REMARK  116  A    between atoms: _297  and  _299
REMARK  117  A    between atoms: _299  and  _300
REMARK  118  A    between atoms: _303  and  _305
REMARK  119  A    between atoms: _305  and  _306
REMARK  120  A    between atoms: _305  and  _308
REMARK  121  A    between atoms: _308  and  _309
REMARK  122  A    between atoms: _312  and  _314
REMARK  123  A    between atoms: _314  and  _315
REMARK  124  A    between atoms: _314  and  _317
REMARK  125  A    between atoms: _317  and  _318
REMARK  126  A    between atoms: _318  and  _319
REMARK  127  A    between atoms: _322  and  _324
REMARK  128  A    between atoms: _324  and  _325
REMARK  129  A    between atoms: _324  and  _327
REMARK  130  A    between atoms: _327  and  _328
REMARK  131  A    between atoms: _333  and  _335
REMARK  132  A    between atoms: _335  and  _336
REMARK  133  A    between atoms: _338  and  _340
REMARK  134  A    between atoms: _340  and  _341
REMARK  135  A    between atoms: _340  and  _343
REMARK  136  A    between atoms: _346  and  _348
REMARK  137  A    between atoms: _348  and  _349
REMARK  138  A    between atoms: _352  and  _354
REMARK  139  A    between atoms: _354  and  _355
REMARK  140  A    between atoms: _354  and  _357
REMARK  141  A    between atoms: _357  and  _358
REMARK  142  A    between atoms: _363  and  _365
REMARK  143  A    between atoms: _365  and  _366
REMARK  144  A    between atoms: _365  and  _368
REMARK  145  A    between atoms: _368  and  _369
REMARK  146  A    between atoms: _369  and  _370
REMARK  147  A    between atoms: _370  and  _371
REMARK  148  A    between atoms: _371  and  _372
REMARK  149  A    between atoms: _376  and  _378
REMARK  150  A    between atoms: _378  and  _379
REMARK  151  A    between atoms: _378  and  _381
REMARK  152  A    between atoms: _381  and  _382
REMARK  153  A    between atoms: _385  and  _387
REMARK  154  A    between atoms: _387  and  _388
REMARK  155  A    between atoms: _387  and  _390
REMARK  156  A    between atoms: _390  and  _391
REMARK  157  A    between atoms: _396  and  _398
REMARK  158  A    between atoms: _398  and  _399
REMARK  159  A    between atoms: _401  and  _403
REMARK  160  A    between atoms: _403  and  _404
REMARK  161  A    between atoms: _403  and  _406
REMARK  162  A    between atoms: _406  and  _407
REMARK  163  A    between atoms: _407  and  _408
REMARK  164  A    between atoms: _408  and  _409
REMARK  165  A    between atoms: _409  and  _410
REMARK  166  A    between atoms: _414  and  _416
REMARK  167  A    between atoms: _416  and  _417
REMARK  168  A    between atoms: _416  and  _419
REMARK  169  A    between atoms: _419  and  _420
REMARK  170  A    between atoms: _420  and  _421
REMARK  171  A    between atoms: _421  and  _422
REMARK  172  A    between atoms: _431  and  _433
REMARK  173  A    between atoms: _433  and  _434
REMARK  174  A    between atoms: _433  and  _436
REMARK  175  A    between atoms: _436  and  _437
REMARK  176  A    between atoms: _442  and  _444
REMARK  177  A    between atoms: _444  and  _445
REMARK  178  A    between atoms: _444  and  _447
REMARK  179  A    between atoms: _447  and  _448
REMARK  180  A    between atoms: _453  and  _454
REMARK  181  A    between atoms: _456  and  _458
REMARK  182  A    between atoms: _458  and  _459
REMARK  183  A    between atoms: _458  and  _461
REMARK  184  A    between atoms: _461  and  _462
REMARK  185  A    between atoms: _462  and  _463
REMARK  186  A    between atoms: _463  and  _464
REMARK  187  A    between atoms: _464  and  _465
REMARK  188  A    between atoms: _469  and  _471
REMARK  189  A    between atoms: _471  and  _472
REMARK  190  A    between atoms: _471  and  _474
REMARK  191  A    between atoms: _474  and  _475
REMARK  192  A    between atoms: _477  and  _479
REMARK  193  A    between atoms: _479  and  _480
REMARK  194  A    between atoms: _479  and  _482
REMARK  195  A    between atoms: _482  and  _483
REMARK  196  A    between atoms: _486  and  _488
REMARK  197  A    between atoms: _488  and  _489
REMARK  198  A    between atoms: _488  and  _491
REMARK  199  A    between atoms: _491  and  _492
REMARK  200  A    between atoms: _492  and  _493
REMARK  201  A    between atoms: _496  and  _498
REMARK  202  A    between atoms: _498  and  _499
REMARK  203  A    between atoms: _502  and  _504
REMARK  204  A    between atoms: _504  and  _505
REMARK  205  A    between atoms: _504  and  _507
REMARK  206  A    between atoms: _507  and  _508
REMARK  207  A    between atoms: _510  and  _512
REMARK  208  A    between atoms: _512  and  _513
REMARK  209  A    between atoms: _515  and  _517
REMARK  210  A    between atoms: _517  and  _518
REMARK  211  A    between atoms: _517  and  _520
REMARK  212  A    between atoms: _520  and  _521
REMARK  213  A    between atoms: _524  and  _526
REMARK  214  A    between atoms: _526  and  _527
REMARK  215  A    between atoms: _529  and  _531
REMARK  216  A    between atoms: _531  and  _532
REMARK  217  A    between atoms: _531  and  _534
REMARK  218  A    between atoms: _534  and  _535
REMARK  219  A    between atoms: _540  and  _542
REMARK  220  A    between atoms: _542  and  _543
REMARK  221  A    between atoms: _542  and  _545
REMARK  222  A    between atoms: _545  and  _546
REMARK  223  A    between atoms: _546  and  _547
REMARK  224  A    between atoms: _554  and  _555
REMARK  225  A    between atoms: _555  and  _571
REMARK  226  A    between atoms: _556  and  _558
REMARK  227  A    between atoms: _558  and  _559
REMARK  228  A    between atoms: _559  and  _560
REMARK  229  A    between atoms: _564  and  _566
REMARK  230  A    between atoms: _566  and  _567
REMARK  231  A    between atoms: _566  and  _574
REMARK  232  A    between atoms: _567  and  _568
REMARK  233  A    between atoms: _568  and  _569
REMARK  234  A    between atoms: _569  and  _570
REMARK  235  A    between atoms: _570  and  _571
REMARK  236  A    between atoms: _576  and  _578
REMARK  237  A    between atoms: _578  and  _579
REMARK  238  A    between atoms: _578  and  _581
REMARK  239  A    between atoms: _581  and  _582
REMARK  240  A    between atoms: _585  and  _587
REMARK  241  A    between atoms: _587  and  _588
REMARK  242  A    between atoms: _590  and  _592
REMARK  243  A    between atoms: _592  and  _593
REMARK  244  A    between atoms: _596  and  _598
REMARK  245  A    between atoms: _598  and  _599
REMARK  246  A    between atoms: _598  and  _601
REMARK  247  A    between atoms: _601  and  _602
REMARK  248  A    between atoms: _607  and  _608
REMARK                            x       y       z     vdW  Elec       q    Type
REMARK                         _______ _______ _______ _____ _____    ______ ____
ROOT
ATOM      1  O   HOH     1      27.065  19.228  28.924  0.00  0.00    +0.000 OA
ENDROOT
TORSDOF 0
REMARK  Name = ../refined-set-2016/4el5/4el5_pocket.pdb
REMARK  248 active torsions:
REMARK  status: ('A' for Active; 'I' for Inactive)
REMARK    1  A    between atoms: _1  and  _3
REMARK    2  A    between atoms: _3  and  _4
REMARK    3  A    between atoms: _3  and  _6
REMARK    4  A    between atoms: _6  and  _7
REMARK    5  A    between atoms: _12  and  _13
REMARK    6  A    between atoms: _15  and  _17
REMARK    7  A    between atoms: _17  and  _18
REMARK    8  A    between atoms: _17  and  _20
REMARK    9  A    between atoms: _20  and  _21
REMARK   10  A    between atoms: _21  and  _22
REMARK   11  A    between atoms: _25  and  _27
REMARK   12  A    between atoms: _27  and  _28
REMARK   13  A    between atoms: _27  and  _30
REMARK   14  A    between atoms: _30  and  _31
REMARK   15  A    between atoms: _36  and  _38
REMARK   16  A    between atoms: _38  and  _39
REMARK   17  A    between atoms: _41  and  _43
REMARK   18  A    between atoms: _43  and  _44
REMARK   19  A    between atoms: _46  and  _48
REMARK   20  A    between atoms: _48  and  _49
REMARK   21  A    between atoms: _48  and  _51
REMARK   22  A    between atoms: _51  and  _52
REMARK   23  A    between atoms: _55  and  _57
REMARK   24  A    between atoms: _57  and  _58
REMARK   25  A    between atoms: _60  and  _62
REMARK   26  A    between atoms: _62  and  _63
REMARK   27  A    between atoms: _62  and  _65
REMARK   28  A    between atoms: _65  and  _66
REMARK   29  A    between atoms: _66  and  _67
REMARK   30  A    between atoms: _67  and  _68
REMARK   31  A    between atoms: _77  and  _79
REMARK   32  A    between atoms: _79  and  _80
REMARK   33  A    between atoms: _79  and  _82
REMARK   34  A    between atoms: _82  and  _83
REMARK   35  A    between atoms: _86  and  _88
REMARK   36  A    between atoms: _88  and  _89
REMARK   37  A    between atoms: _92  and  _94
REMARK   38  A    between atoms: _94  and  _95
REMARK   39  A    between atoms: _94  and  _97
REMARK   40  A    between atoms: _97  and  _98
REMARK   41  A    between atoms: _104  and  _106
REMARK   42  A    between atoms: _106  and  _107
REMARK   43  A    between atoms: _106  and  _109
REMARK   44  A    between atoms: _109  and  _110
REMARK   45  A    between atoms: _115  and  _117
REMARK   46  A    between atoms: _117  and  _118
REMARK   47  A    between atoms: _117  and  _120
REMARK   48  A    between atoms: _120  and  _121
REMARK   49  A    between atoms: _124  and  _126
REMARK   50  A    between atoms: _126  and  _127
REMARK   51  A    between atoms: _126  and  _129
REMARK   52  A    between atoms: _129  and  _130
REMARK   53  A    between atoms: _135  and  _137
REMARK   54  A    between atoms: _137  and  _138
REMARK   55  A    between atoms: _137  and  _140
REMARK   56  A    between atoms: _140  and  _141
REMARK   57  A    between atoms: _147  and  _149
REMARK   58  A    between atoms: _149  and  _150
REMARK   59  A    between atoms: _149  and  _152
REMARK   60  A    between atoms: _152  and  _153
REMARK   61  A    between atoms: _159  and  _161
REMARK   62  A    between atoms: _161  and  _162
REMARK   63  A    between atoms: _161  and  _164
REMARK   64  A    between atoms: _164  and  _165
REMARK   65  A    between atoms: _165  and  _166
REMARK   66  A    between atoms: _166  and  _167
REMARK   67  A    between atoms: _176  and  _178
REMARK   68  A    between atoms: _178  and  _179
REMARK   69  A    between atoms: _178  and  _181
REMARK   70  A    between atoms: _181  and  _182
REMARK   71  A    between atoms: _187  and  _189
REMARK   72  A    between atoms: _189  and  _190
REMARK   73  A    between atoms: _189  and  _192
REMARK   74  A    between atoms: _192  and  _193
REMARK   75  A    between atoms: _196  and  _198
REMARK   76  A    between atoms: _198  and  _199
REMARK   77  A    between atoms: _198  and  _201
REMARK   78  A    between atoms: _201  and  _202
REMARK   79  A    between atoms: _205  and  _207
REMARK   80  A    between atoms: _207  and  _208
REMARK   81  A    between atoms: _207  and  _210
REMARK   82  A    between atoms: _210  and  _211
REMARK   83  A    between atoms: _216  and  _218
REMARK   84  A    between atoms: _218  and  _219
REMARK   85  A    between atoms: _218  and  _221
REMARK   86  A    between atoms: _221  and  _222
REMARK   87  A    between atoms: _227  and  _228
REMARK   88  A    between atoms: _230  and  _232
REMARK   89  A    between atoms: _232  and  _233
REMARK   90  A    between atoms: _232  and  _235
REMARK   91  A    between atoms: _235  and  _236
REMARK   92  A    between atoms: _239  and  _241
REMARK   93  A    between atoms: _241  and  _242
REMARK   94  A    between atoms: _241  and  _244
REMARK   95  A    between atoms: _244  and  _245
REMARK   96  A    between atoms: _250  and  _252
REMARK   97  A    between atoms: _252  and  _253
REMARK   98  A    between atoms: _252  and  _255
REMARK   99  A    between atoms: _255  and  _256
REMARK  100  A    between atoms: _261  and  _263
REMARK  101  A    between atoms: _263  and  _264
REMARK  102  A    between atoms: _263  and  _266
REMARK  103  A    between atoms: _266  and  _267
REMARK  104  A    between atoms: _270  and  _272
REMARK  105  A    between atoms: _272  and  _273
REMARK  106  A    between atoms: _272  and  _275
REMARK  107  A    between atoms: _278  and  _280
REMARK  108  A    between atoms: _280  and  _281
REMARK  109  A    between atoms: _280  and  _283
REMARK  110  A    between atoms: _283  and  _284
REMARK  111  A    between atoms: _287  and  _289
REMARK  112  A    between atoms: _289  and  _290
REMARK  113  A    between atoms: _289  and  _292
REMARK  114  A    between atoms: _292  and  _293
REMARK  115  A    between atoms: _293  and  _294
REMARK  116  A    between atoms: _297  and  _299
REMARK  117  A    between atoms: _299  and  _300
REMARK  118  A    between atoms: _303  and  _305
REMARK  119  A    between atoms: _305  and  _306
REMARK  120  A    between atoms: _305  and  _308
REMARK  121  A    between atoms: _308  and  _309
REMARK  122  A    between atoms: _312  and  _314
REMARK  123  A    between atoms: _314  and  _315
REMARK  124  A    between atoms: _314  and  _317
REMARK  125  A    between atoms: _317  and  _318
REMARK  126  A    between atoms: _318  and  _319
REMARK  127  A    between atoms: _322  and  _324
REMARK  128  A    between atoms: _324  and  _325
REMARK  129  A    between atoms: _324  and  _327
REMARK  130  A    between atoms: _327  and  _328
REMARK  131  A    between atoms: _333  and  _335
REMARK  132  A    between atoms: _335  and  _336
REMARK  133  A    between atoms: _338  and  _340
REMARK  134  A    between atoms: _340  and  _341
REMARK  135  A    between atoms: _340  and  _343
REMARK  136  A    between atoms: _346  and  _348
REMARK  137  A    between atoms: _348  and  _349
REMARK  138  A    between atoms: _352  and  _354
REMARK  139  A    between atoms: _354  and  _355
REMARK  140  A    between atoms: _354  and  _357
REMARK  141  A    between atoms: _357  and  _358
REMARK  142  A    between atoms: _363  and  _365
REMARK  143  A    between atoms: _365  and  _366
REMARK  144  A    between atoms: _365  and  _368
REMARK  145  A    between atoms: _368  and  _369
REMARK  146  A    between atoms: _369  and  _370
REMARK  147  A    between atoms: _370  and  _371
REMARK  148  A    between atoms: _371  and  _372
REMARK  149  A    between atoms: _376  and  _378
REMARK  150  A    between atoms: _378  and  _379
REMARK  151  A    between atoms: _378  and  _381
REMARK  152  A    between atoms: _381  and  _382
REMARK  153  A    between atoms: _385  and  _387
REMARK  154  A    between atoms: _387  and  _388
REMARK  155  A    between atoms: _387  and  _390
REMARK  156  A    between atoms: _390  and  _391
REMARK  157  A    between atoms: _396  and  _398
REMARK  158  A    between atoms: _398  and  _399
REMARK  159  A    between atoms: _401  and  _403
REMARK  160  A    between atoms: _403  and  _404
REMARK  161  A    between atoms: _403  and  _406
REMARK  162  A    between atoms: _406  and  _407
REMARK  163  A    between atoms: _407  and  _408
REMARK  164  A    between atoms: _408  and  _409
REMARK  165  A    between atoms: _409  and  _410
REMARK  166  A    between atoms: _414  and  _416
REMARK  167  A    between atoms: _416  and  _417
REMARK  168  A    between atoms: _416  and  _419
REMARK  169  A    between atoms: _419  and  _420
REMARK  170  A    between atoms: _420  and  _421
REMARK  171  A    between atoms: _421  and  _422
REMARK  172  A    between atoms: _431  and  _433
REMARK  173  A    between atoms: _433  and  _434
REMARK  174  A    between atoms: _433  and  _436
REMARK  175  A    between atoms: _436  and  _437
REMARK  176  A    between atoms: _442  and  _444
REMARK  177  A    between atoms: _444  and  _445
REMARK  178  A    between atoms: _444  and  _447
REMARK  179  A    between atoms: _447  and  _448
REMARK  180  A    between atoms: _453  and  _454
REMARK  181  A    between atoms: _456  and  _458
REMARK  182  A    between atoms: _458  and  _459
REMARK  183  A    between atoms: _458  and  _461
REMARK  184  A    between atoms: _461  and  _462
REMARK  185  A    between atoms: _462  and  _463
REMARK  186  A    between atoms: _463  and  _464
REMARK  187  A    between atoms: _464  and  _465
REMARK  188  A    between atoms: _469  and  _471
REMARK  189  A    between atoms: _471  and  _472
REMARK  190  A    between atoms: _471  and  _474
REMARK  191  A    between atoms: _474  and  _475
REMARK  192  A    between atoms: _477  and  _479
REMARK  193  A    between atoms: _479  and  _480
REMARK  194  A    between atoms: _479  and  _482
REMARK  195  A    between atoms: _482  and  _483
REMARK  196  A    between atoms: _486  and  _488
REMARK  197  A    between atoms: _488  and  _489
REMARK  198  A    between atoms: _488  and  _491
REMARK  199  A    between atoms: _491  and  _492
REMARK  200  A    between atoms: _492  and  _493
REMARK  201  A    between atoms: _496  and  _498
REMARK  202  A    between atoms: _498  and  _499
REMARK  203  A    between atoms: _502  and  _504
REMARK  204  A    between atoms: _504  and  _505
REMARK  205  A    between atoms: _504  and  _507
REMARK  206  A    between atoms: _507  and  _508
REMARK  207  A    between atoms: _510  and  _512
REMARK  208  A    between atoms: _512  and  _513
REMARK  209  A    between atoms: _515  and  _517
REMARK  210  A    between atoms: _517  and  _518
REMARK  211  A    between atoms: _517  and  _520
REMARK  212  A    between atoms: _520  and  _521
REMARK  213  A    between atoms: _524  and  _526
REMARK  214  A    between atoms: _526  and  _527
REMARK  215  A    between atoms: _529  and  _531
REMARK  216  A    between atoms: _531  and  _532
REMARK  217  A    between atoms: _531  and  _534
REMARK  218  A    between atoms: _534  and  _535
REMARK  219  A    between atoms: _540  and  _542
REMARK  220  A    between atoms: _542  and  _543
REMARK  221  A    between atoms: _542  and  _545
REMARK  222  A    between atoms: _545  and  _546
REMARK  223  A    between atoms: _546  and  _547
REMARK  224  A    between atoms: _554  and  _555
REMARK  225  A    between atoms: _555  and  _571
REMARK  226  A    between atoms: _556  and  _558
REMARK  227  A    between atoms: _558  and  _559
REMARK  228  A    between atoms: _559  and  _560
REMARK  229  A    between atoms: _564  and  _566
REMARK  230  A    between atoms: _566  and  _567
REMARK  231  A    between atoms: _566  and  _574
REMARK  232  A    between atoms: _567  and  _568
REMARK  233  A    between atoms: _568  and  _569
REMARK  234  A    between atoms: _569  and  _570
REMARK  235  A    between atoms: _570  and  _571
REMARK  236  A    between atoms: _576  and  _578
REMARK  237  A    between atoms: _578  and  _579
REMARK  238  A    between atoms: _578  and  _581
REMARK  239  A    between atoms: _581  and  _582
REMARK  240  A    between atoms: _585  and  _587
REMARK  241  A    between atoms: _587  and  _588
REMARK  242  A    between atoms: _590  and  _592
REMARK  243  A    between atoms: _592  and  _593
REMARK  244  A    between atoms: _596  and  _598
REMARK  245  A    between atoms: _598  and  _599
REMARK  246  A    between atoms: _598  and  _601
REMARK  247  A    between atoms: _601  and  _602
REMARK  248  A    between atoms: _607  and  _608
REMARK                            x       y       z     vdW  Elec       q    Type
REMARK                         _______ _______ _______ _____ _____    ______ ____
ROOT
ATOM      1  O   HOH     1      29.200  21.758  26.329  0.00  0.00    +0.000 OA
ENDROOT
TORSDOF 0
REMARK  Name = ../refined-set-2016/4el5/4el5_pocket.pdb
REMARK  248 active torsions:
REMARK  status: ('A' for Active; 'I' for Inactive)
REMARK    1  A    between atoms: _1  and  _3
REMARK    2  A    between atoms: _3  and  _4
REMARK    3  A    between atoms: _3  and  _6
REMARK    4  A    between atoms: _6  and  _7
REMARK    5  A    between atoms: _12  and  _13
REMARK    6  A    between atoms: _15  and  _17
REMARK    7  A    between atoms: _17  and  _18
REMARK    8  A    between atoms: _17  and  _20
REMARK    9  A    between atoms: _20  and  _21
REMARK   10  A    between atoms: _21  and  _22
REMARK   11  A    between atoms: _25  and  _27
REMARK   12  A    between atoms: _27  and  _28
REMARK   13  A    between atoms: _27  and  _30
REMARK   14  A    between atoms: _30  and  _31
REMARK   15  A    between atoms: _36  and  _38
REMARK   16  A    between atoms: _38  and  _39
REMARK   17  A    between atoms: _41  and  _43
REMARK   18  A    between atoms: _43  and  _44
REMARK   19  A    between atoms: _46  and  _48
REMARK   20  A    between atoms: _48  and  _49
REMARK   21  A    between atoms: _48  and  _51
REMARK   22  A    between atoms: _51  and  _52
REMARK   23  A    between atoms: _55  and  _57
REMARK   24  A    between atoms: _57  and  _58
REMARK   25  A    between atoms: _60  and  _62
REMARK   26  A    between atoms: _62  and  _63
REMARK   27  A    between atoms: _62  and  _65
REMARK   28  A    between atoms: _65  and  _66
REMARK   29  A    between atoms: _66  and  _67
REMARK   30  A    between atoms: _67  and  _68
REMARK   31  A    between atoms: _77  and  _79
REMARK   32  A    between atoms: _79  and  _80
REMARK   33  A    between atoms: _79  and  _82
REMARK   34  A    between atoms: _82  and  _83
REMARK   35  A    between atoms: _86  and  _88
REMARK   36  A    between atoms: _88  and  _89
REMARK   37  A    between atoms: _92  and  _94
REMARK   38  A    between atoms: _94  and  _95
REMARK   39  A    between atoms: _94  and  _97
REMARK   40  A    between atoms: _97  and  _98
REMARK   41  A    between atoms: _104  and  _106
REMARK   42  A    between atoms: _106  and  _107
REMARK   43  A    between atoms: _106  and  _109
REMARK   44  A    between atoms: _109  and  _110
REMARK   45  A    between atoms: _115  and  _117
REMARK   46  A    between atoms: _117  and  _118
REMARK   47  A    between atoms: _117  and  _120
REMARK   48  A    between atoms: _120  and  _121
REMARK   49  A    between atoms: _124  and  _126
REMARK   50  A    between atoms: _126  and  _127
REMARK   51  A    between atoms: _126  and  _129
REMARK   52  A    between atoms: _129  and  _130
REMARK   53  A    between atoms: _135  and  _137
REMARK   54  A    between atoms: _137  and  _138
REMARK   55  A    between atoms: _137  and  _140
REMARK   56  A    between atoms: _140  and  _141
REMARK   57  A    between atoms: _147  and  _149
REMARK   58  A    between atoms: _149  and  _150
REMARK   59  A    between atoms: _149  and  _152
REMARK   60  A    between atoms: _152  and  _153
REMARK   61  A    between atoms: _159  and  _161
REMARK   62  A    between atoms: _161  and  _162
REMARK   63  A    between atoms: _161  and  _164
REMARK   64  A    between atoms: _164  and  _165
REMARK   65  A    between atoms: _165  and  _166
REMARK   66  A    between atoms: _166  and  _167
REMARK   67  A    between atoms: _176  and  _178
REMARK   68  A    between atoms: _178  and  _179
REMARK   69  A    between atoms: _178  and  _181
REMARK   70  A    between atoms: _181  and  _182
REMARK   71  A    between atoms: _187  and  _189
REMARK   72  A    between atoms: _189  and  _190
REMARK   73  A    between atoms: _189  and  _192
REMARK   74  A    between atoms: _192  and  _193
REMARK   75  A    between atoms: _196  and  _198
REMARK   76  A    between atoms: _198  and  _199
REMARK   77  A    between atoms: _198  and  _201
REMARK   78  A    between atoms: _201  and  _202
REMARK   79  A    between atoms: _205  and  _207
REMARK   80  A    between atoms: _207  and  _208
REMARK   81  A    between atoms: _207  and  _210
REMARK   82  A    between atoms: _210  and  _211
REMARK   83  A    between atoms: _216  and  _218
REMARK   84  A    between atoms: _218  and  _219
REMARK   85  A    between atoms: _218  and  _221
REMARK   86  A    between atoms: _221  and  _222
REMARK   87  A    between atoms: _227  and  _228
REMARK   88  A    between atoms: _230  and  _232
REMARK   89  A    between atoms: _232  and  _233
REMARK   90  A    between atoms: _232  and  _235
REMARK   91  A    between atoms: _235  and  _236
REMARK   92  A    between atoms: _239  and  _241
REMARK   93  A    between atoms: _241  and  _242
REMARK   94  A    between atoms: _241  and  _244
REMARK   95  A    between atoms: _244  and  _245
REMARK   96  A    between atoms: _250  and  _252
REMARK   97  A    between atoms: _252  and  _253
REMARK   98  A    between atoms: _252  and  _255
REMARK   99  A    between atoms: _255  and  _256
REMARK  100  A    between atoms: _261  and  _263
REMARK  101  A    between atoms: _263  and  _264
REMARK  102  A    between atoms: _263  and  _266
REMARK  103  A    between atoms: _266  and  _267
REMARK  104  A    between atoms: _270  and  _272
REMARK  105  A    between atoms: _272  and  _273
REMARK  106  A    between atoms: _272  and  _275
REMARK  107  A    between atoms: _278  and  _280
REMARK  108  A    between atoms: _280  and  _281
REMARK  109  A    between atoms: _280  and  _283
REMARK  110  A    between atoms: _283  and  _284
REMARK  111  A    between atoms: _287  and  _289
REMARK  112  A    between atoms: _289  and  _290
REMARK  113  A    between atoms: _289  and  _292
REMARK  114  A    between atoms: _292  and  _293
REMARK  115  A    between atoms: _293  and  _294
REMARK  116  A    between atoms: _297  and  _299
REMARK  117  A    between atoms: _299  and  _300
REMARK  118  A    between atoms: _303  and  _305
REMARK  119  A    between atoms: _305  and  _306
REMARK  120  A    between atoms: _305  and  _308
REMARK  121  A    between atoms: _308  and  _309
REMARK  122  A    between atoms: _312  and  _314
REMARK  123  A    between atoms: _314  and  _315
REMARK  124  A    between atoms: _314  and  _317
REMARK  125  A    between atoms: _317  and  _318
REMARK  126  A    between atoms: _318  and  _319
REMARK  127  A    between atoms: _322  and  _324
REMARK  128  A    between atoms: _324  and  _325
REMARK  129  A    between atoms: _324  and  _327
REMARK  130  A    between atoms: _327  and  _328
REMARK  131  A    between atoms: _333  and  _335
REMARK  132  A    between atoms: _335  and  _336
REMARK  133  A    between atoms: _338  and  _340
REMARK  134  A    between atoms: _340  and  _341
REMARK  135  A    between atoms: _340  and  _343
REMARK  136  A    between atoms: _346  and  _348
REMARK  137  A    between atoms: _348  and  _349
REMARK  138  A    between atoms: _352  and  _354
REMARK  139  A    between atoms: _354  and  _355
REMARK  140  A    between atoms: _354  and  _357
REMARK  141  A    between atoms: _357  and  _358
REMARK  142  A    between atoms: _363  and  _365
REMARK  143  A    between atoms: _365  and  _366
REMARK  144  A    between atoms: _365  and  _368
REMARK  145  A    between atoms: _368  and  _369
REMARK  146  A    between atoms: _369  and  _370
REMARK  147  A    between atoms: _370  and  _371
REMARK  148  A    between atoms: _371  and  _372
REMARK  149  A    between atoms: _376  and  _378
REMARK  150  A    between atoms: _378  and  _379
REMARK  151  A    between atoms: _378  and  _381
REMARK  152  A    between atoms: _381  and  _382
REMARK  153  A    between atoms: _385  and  _387
REMARK  154  A    between atoms: _387  and  _388
REMARK  155  A    between atoms: _387  and  _390
REMARK  156  A    between atoms: _390  and  _391
REMARK  157  A    between atoms: _396  and  _398
REMARK  158  A    between atoms: _398  and  _399
REMARK  159  A    between atoms: _401  and  _403
REMARK  160  A    between atoms: _403  and  _404
REMARK  161  A    between atoms: _403  and  _406
REMARK  162  A    between atoms: _406  and  _407
REMARK  163  A    between atoms: _407  and  _408
REMARK  164  A    between atoms: _408  and  _409
REMARK  165  A    between atoms: _409  and  _410
REMARK  166  A    between atoms: _414  and  _416
REMARK  167  A    between atoms: _416  and  _417
REMARK  168  A    between atoms: _416  and  _419
REMARK  169  A    between atoms: _419  and  _420
REMARK  170  A    between atoms: _420  and  _421
REMARK  171  A    between atoms: _421  and  _422
REMARK  172  A    between atoms: _431  and  _433
REMARK  173  A    between atoms: _433  and  _434
REMARK  174  A    between atoms: _433  and  _436
REMARK  175  A    between atoms: _436  and  _437
REMARK  176  A    between atoms: _442  and  _444
REMARK  177  A    between atoms: _444  and  _445
REMARK  178  A    between atoms: _444  and  _447
REMARK  179  A    between atoms: _447  and  _448
REMARK  180  A    between atoms: _453  and  _454
REMARK  181  A    between atoms: _456  and  _458
REMARK  182  A    between atoms: _458  and  _459
REMARK  183  A    between atoms: _458  and  _461
REMARK  184  A    between atoms: _461  and  _462
REMARK  185  A    between atoms: _462  and  _463
REMARK  186  A    between atoms: _463  and  _464
REMARK  187  A    between atoms: _464  and  _465
REMARK  188  A    between atoms: _469  and  _471
REMARK  189  A    between atoms: _471  and  _472
REMARK  190  A    between atoms: _471  and  _474
REMARK  191  A    between atoms: _474  and  _475
REMARK  192  A    between atoms: _477  and  _479
REMARK  193  A    between atoms: _479  and  _480
REMARK  194  A    between atoms: _479  and  _482
REMARK  195  A    between atoms: _482  and  _483
REMARK  196  A    between atoms: _486  and  _488
REMARK  197  A    between atoms: _488  and  _489
REMARK  198  A    between atoms: _488  and  _491
REMARK  199  A    between atoms: _491  and  _492
REMARK  200  A    between atoms: _492  and  _493
REMARK  201  A    between atoms: _496  and  _498
REMARK  202  A    between atoms: _498  and  _499
REMARK  203  A    between atoms: _502  and  _504
REMARK  204  A    between atoms: _504  and  _505
REMARK  205  A    between atoms: _504  and  _507
REMARK  206  A    between atoms: _507  and  _508
REMARK  207  A    between atoms: _510  and  _512
REMARK  208  A    between atoms: _512  and  _513
REMARK  209  A    between atoms: _515  and  _517
REMARK  210  A    between atoms: _517  and  _518
REMARK  211  A    between atoms: _517  and  _520
REMARK  212  A    between atoms: _520  and  _521
REMARK  213  A    between atoms: _524  and  _526
REMARK  214  A    between atoms: _526  and  _527
REMARK  215  A    between atoms: _529  and  _531
REMARK  216  A    between atoms: _531  and  _532
REMARK  217  A    between atoms: _531  and  _534
REMARK  218  A    between atoms: _534  and  _535
REMARK  219  A    between atoms: _540  and  _542
REMARK  220  A    between atoms: _542  and  _543
REMARK  221  A    between atoms: _542  and  _545
REMARK  222  A    between atoms: _545  and  _546
REMARK  223  A    between atoms: _546  and  _547
REMARK  224  A    between atoms: _554  and  _555
REMARK  225  A    between atoms: _555  and  _571
REMARK  226  A    between atoms: _556  and  _558
REMARK  227  A    between atoms: _558  and  _559
REMARK  228  A    between atoms: _559  and  _560
REMARK  229  A    between atoms: _564  and  _566
REMARK  230  A    between atoms: _566  and  _567
REMARK  231  A    between atoms: _566  and  _574
REMARK  232  A    between atoms: _567  and  _568
REMARK  233  A    between atoms: _568  and  _569
REMARK  234  A    between atoms: _569  and  _570
REMARK  235  A    between atoms: _570  and  _571
REMARK  236  A    between atoms: _576  and  _578
REMARK  237  A    between atoms: _578  and  _579
REMARK  238  A    between atoms: _578  and  _581
REMARK  239  A    between atoms: _581  and  _582
REMARK  240  A    between atoms: _585  and  _587
REMARK  241  A    between atoms: _587  and  _588
REMARK  242  A    between atoms: _590  and  _592
REMARK  243  A    between atoms: _592  and  _593
REMARK  244  A    between atoms: _596  and  _598
REMARK  245  A    between atoms: _598  and  _599
REMARK  246  A    between atoms: _598  and  _601
REMARK  247  A    between atoms: _601  and  _602
REMARK  248  A    between atoms: _607  and  _608
REMARK                            x       y       z     vdW  Elec       q    Type
REMARK                         _______ _______ _______ _____ _____    ______ ____
ROOT
ATOM      1  O   HOH     1      38.387  30.503  36.834  0.00  0.00    +0.000 OA
ENDROOT
TORSDOF 0
REMARK  Name = ../refined-set-2016/4el5/4el5_pocket.pdb
REMARK  248 active torsions:
REMARK  status: ('A' for Active; 'I' for Inactive)
REMARK    1  A    between atoms: _1  and  _3
REMARK    2  A    between atoms: _3  and  _4
REMARK    3  A    between atoms: _3  and  _6
REMARK    4  A    between atoms: _6  and  _7
REMARK    5  A    between atoms: _12  and  _13
REMARK    6  A    between atoms: _15  and  _17
REMARK    7  A    between atoms: _17  and  _18
REMARK    8  A    between atoms: _17  and  _20
REMARK    9  A    between atoms: _20  and  _21
REMARK   10  A    between atoms: _21  and  _22
REMARK   11  A    between atoms: _25  and  _27
REMARK   12  A    between atoms: _27  and  _28
REMARK   13  A    between atoms: _27  and  _30
REMARK   14  A    between atoms: _30  and  _31
REMARK   15  A    between atoms: _36  and  _38
REMARK   16  A    between atoms: _38  and  _39
REMARK   17  A    between atoms: _41  and  _43
REMARK   18  A    between atoms: _43  and  _44
REMARK   19  A    between atoms: _46  and  _48
REMARK   20  A    between atoms: _48  and  _49
REMARK   21  A    between atoms: _48  and  _51
REMARK   22  A    between atoms: _51  and  _52
REMARK   23  A    between atoms: _55  and  _57
REMARK   24  A    between atoms: _57  and  _58
REMARK   25  A    between atoms: _60  and  _62
REMARK   26  A    between atoms: _62  and  _63
REMARK   27  A    between atoms: _62  and  _65
REMARK   28  A    between atoms: _65  and  _66
REMARK   29  A    between atoms: _66  and  _67
REMARK   30  A    between atoms: _67  and  _68
REMARK   31  A    between atoms: _77  and  _79
REMARK   32  A    between atoms: _79  and  _80
REMARK   33  A    between atoms: _79  and  _82
REMARK   34  A    between atoms: _82  and  _83
REMARK   35  A    between atoms: _86  and  _88
REMARK   36  A    between atoms: _88  and  _89
REMARK   37  A    between atoms: _92  and  _94
REMARK   38  A    between atoms: _94  and  _95
REMARK   39  A    between atoms: _94  and  _97
REMARK   40  A    between atoms: _97  and  _98
REMARK   41  A    between atoms: _104  and  _106
REMARK   42  A    between atoms: _106  and  _107
REMARK   43  A    between atoms: _106  and  _109
REMARK   44  A    between atoms: _109  and  _110
REMARK   45  A    between atoms: _115  and  _117
REMARK   46  A    between atoms: _117  and  _118
REMARK   47  A    between atoms: _117  and  _120
REMARK   48  A    between atoms: _120  and  _121
REMARK   49  A    between atoms: _124  and  _126
REMARK   50  A    between atoms: _126  and  _127
REMARK   51  A    between atoms: _126  and  _129
REMARK   52  A    between atoms: _129  and  _130
REMARK   53  A    between atoms: _135  and  _137
REMARK   54  A    between atoms: _137  and  _138
REMARK   55  A    between atoms: _137  and  _140
REMARK   56  A    between atoms: _140  and  _141
REMARK   57  A    between atoms: _147  and  _149
REMARK   58  A    between atoms: _149  and  _150
REMARK   59  A    between atoms: _149  and  _152
REMARK   60  A    between atoms: _152  and  _153
REMARK   61  A    between atoms: _159  and  _161
REMARK   62  A    between atoms: _161  and  _162
REMARK   63  A    between atoms: _161  and  _164
REMARK   64  A    between atoms: _164  and  _165
REMARK   65  A    between atoms: _165  and  _166
REMARK   66  A    between atoms: _166  and  _167
REMARK   67  A    between atoms: _176  and  _178
REMARK   68  A    between atoms: _178  and  _179
REMARK   69  A    between atoms: _178  and  _181
REMARK   70  A    between atoms: _181  and  _182
REMARK   71  A    between atoms: _187  and  _189
REMARK   72  A    between atoms: _189  and  _190
REMARK   73  A    between atoms: _189  and  _192
REMARK   74  A    between atoms: _192  and  _193
REMARK   75  A    between atoms: _196  and  _198
REMARK   76  A    between atoms: _198  and  _199
REMARK   77  A    between atoms: _198  and  _201
REMARK   78  A    between atoms: _201  and  _202
REMARK   79  A    between atoms: _205  and  _207
REMARK   80  A    between atoms: _207  and  _208
REMARK   81  A    between atoms: _207  and  _210
REMARK   82  A    between atoms: _210  and  _211
REMARK   83  A    between atoms: _216  and  _218
REMARK   84  A    between atoms: _218  and  _219
REMARK   85  A    between atoms: _218  and  _221
REMARK   86  A    between atoms: _221  and  _222
REMARK   87  A    between atoms: _227  and  _228
REMARK   88  A    between atoms: _230  and  _232
REMARK   89  A    between atoms: _232  and  _233
REMARK   90  A    between atoms: _232  and  _235
REMARK   91  A    between atoms: _235  and  _236
REMARK   92  A    between atoms: _239  and  _241
REMARK   93  A    between atoms: _241  and  _242
REMARK   94  A    between atoms: _241  and  _244
REMARK   95  A    between atoms: _244  and  _245
REMARK   96  A    between atoms: _250  and  _252
REMARK   97  A    between atoms: _252  and  _253
REMARK   98  A    between atoms: _252  and  _255
REMARK   99  A    between atoms: _255  and  _256
REMARK  100  A    between atoms: _261  and  _263
REMARK  101  A    between atoms: _263  and  _264
REMARK  102  A    between atoms: _263  and  _266
REMARK  103  A    between atoms: _266  and  _267
REMARK  104  A    between atoms: _270  and  _272
REMARK  105  A    between atoms: _272  and  _273
REMARK  106  A    between atoms: _272  and  _275
REMARK  107  A    between atoms: _278  and  _280
REMARK  108  A    between atoms: _280  and  _281
REMARK  109  A    between atoms: _280  and  _283
REMARK  110  A    between atoms: _283  and  _284
REMARK  111  A    between atoms: _287  and  _289
REMARK  112  A    between atoms: _289  and  _290
REMARK  113  A    between atoms: _289  and  _292
REMARK  114  A    between atoms: _292  and  _293
REMARK  115  A    between atoms: _293  and  _294
REMARK  116  A    between atoms: _297  and  _299
REMARK  117  A    between atoms: _299  and  _300
REMARK  118  A    between atoms: _303  and  _305
REMARK  119  A    between atoms: _305  and  _306
REMARK  120  A    between atoms: _305  and  _308
REMARK  121  A    between atoms: _308  and  _309
REMARK  122  A    between atoms: _312  and  _314
REMARK  123  A    between atoms: _314  and  _315
REMARK  124  A    between atoms: _314  and  _317
REMARK  125  A    between atoms: _317  and  _318
REMARK  126  A    between atoms: _318  and  _319
REMARK  127  A    between atoms: _322  and  _324
REMARK  128  A    between atoms: _324  and  _325
REMARK  129  A    between atoms: _324  and  _327
REMARK  130  A    between atoms: _327  and  _328
REMARK  131  A    between atoms: _333  and  _335
REMARK  132  A    between atoms: _335  and  _336
REMARK  133  A    between atoms: _338  and  _340
REMARK  134  A    between atoms: _340  and  _341
REMARK  135  A    between atoms: _340  and  _343
REMARK  136  A    between atoms: _346  and  _348
REMARK  137  A    between atoms: _348  and  _349
REMARK  138  A    between atoms: _352  and  _354
REMARK  139  A    between atoms: _354  and  _355
REMARK  140  A    between atoms: _354  and  _357
REMARK  141  A    between atoms: _357  and  _358
REMARK  142  A    between atoms: _363  and  _365
REMARK  143  A    between atoms: _365  and  _366
REMARK  144  A    between atoms: _365  and  _368
REMARK  145  A    between atoms: _368  and  _369
REMARK  146  A    between atoms: _369  and  _370
REMARK  147  A    between atoms: _370  and  _371
REMARK  148  A    between atoms: _371  and  _372
REMARK  149  A    between atoms: _376  and  _378
REMARK  150  A    between atoms: _378  and  _379
REMARK  151  A    between atoms: _378  and  _381
REMARK  152  A    between atoms: _381  and  _382
REMARK  153  A    between atoms: _385  and  _387
REMARK  154  A    between atoms: _387  and  _388
REMARK  155  A    between atoms: _387  and  _390
REMARK  156  A    between atoms: _390  and  _391
REMARK  157  A    between atoms: _396  and  _398
REMARK  158  A    between atoms: _398  and  _399
REMARK  159  A    between atoms: _401  and  _403
REMARK  160  A    between atoms: _403  and  _404
REMARK  161  A    between atoms: _403  and  _406
REMARK  162  A    between atoms: _406  and  _407
REMARK  163  A    between atoms: _407  and  _408
REMARK  164  A    between atoms: _408  and  _409
REMARK  165  A    between atoms: _409  and  _410
REMARK  166  A    between atoms: _414  and  _416
REMARK  167  A    between atoms: _416  and  _417
REMARK  168  A    between atoms: _416  and  _419
REMARK  169  A    between atoms: _419  and  _420
REMARK  170  A    between atoms: _420  and  _421
REMARK  171  A    between atoms: _421  and  _422
REMARK  172  A    between atoms: _431  and  _433
REMARK  173  A    between atoms: _433  and  _434
REMARK  174  A    between atoms: _433  and  _436
REMARK  175  A    between atoms: _436  and  _437
REMARK  176  A    between atoms: _442  and  _444
REMARK  177  A    between atoms: _444  and  _445
REMARK  178  A    between atoms: _444  and  _447
REMARK  179  A    between atoms: _447  and  _448
REMARK  180  A    between atoms: _453  and  _454
REMARK  181  A    between atoms: _456  and  _458
REMARK  182  A    between atoms: _458  and  _459
REMARK  183  A    between atoms: _458  and  _461
REMARK  184  A    between atoms: _461  and  _462
REMARK  185  A    between atoms: _462  and  _463
REMARK  186  A    between atoms: _463  and  _464
REMARK  187  A    between atoms: _464  and  _465
REMARK  188  A    between atoms: _469  and  _471
REMARK  189  A    between atoms: _471  and  _472
REMARK  190  A    between atoms: _471  and  _474
REMARK  191  A    between atoms: _474  and  _475
REMARK  192  A    between atoms: _477  and  _479
REMARK  193  A    between atoms: _479  and  _480
REMARK  194  A    between atoms: _479  and  _482
REMARK  195  A    between atoms: _482  and  _483
REMARK  196  A    between atoms: _486  and  _488
REMARK  197  A    between atoms: _488  and  _489
REMARK  198  A    between atoms: _488  and  _491
REMARK  199  A    between atoms: _491  and  _492
REMARK  200  A    between atoms: _492  and  _493
REMARK  201  A    between atoms: _496  and  _498
REMARK  202  A    between atoms: _498  and  _499
REMARK  203  A    between atoms: _502  and  _504
REMARK  204  A    between atoms: _504  and  _505
REMARK  205  A    between atoms: _504  and  _507
REMARK  206  A    between atoms: _507  and  _508
REMARK  207  A    between atoms: _510  and  _512
REMARK  208  A    between atoms: _512  and  _513
REMARK  209  A    between atoms: _515  and  _517
REMARK  210  A    between atoms: _517  and  _518
REMARK  211  A    between atoms: _517  and  _520
REMARK  212  A    between atoms: _520  and  _521
REMARK  213  A    between atoms: _524  and  _526
REMARK  214  A    between atoms: _526  and  _527
REMARK  215  A    between atoms: _529  and  _531
REMARK  216  A    between atoms: _531  and  _532
REMARK  217  A    between atoms: _531  and  _534
REMARK  218  A    between atoms: _534  and  _535
REMARK  219  A    between atoms: _540  and  _542
REMARK  220  A    between atoms: _542  and  _543
REMARK  221  A    between atoms: _542  and  _545
REMARK  222  A    between atoms: _545  and  _546
REMARK  223  A    between atoms: _546  and  _547
REMARK  224  A    between atoms: _554  and  _555
REMARK  225  A    between atoms: _555  and  _571
REMARK  226  A    between atoms: _556  and  _558
REMARK  227  A    between atoms: _558  and  _559
REMARK  228  A    between atoms: _559  and  _560
REMARK  229  A    between atoms: _564  and  _566
REMARK  230  A    between atoms: _566  and  _567
REMARK  231  A    between atoms: _566  and  _574
REMARK  232  A    between atoms: _567  and  _568
REMARK  233  A    between atoms: _568  and  _569
REMARK  234  A    between atoms: _569  and  _570
REMARK  235  A    between atoms: _570  and  _571
REMARK  236  A    between atoms: _576  and  _578
REMARK  237  A    between atoms: _578  and  _579
REMARK  238  A    between atoms: _578  and  _581
REMARK  239  A    between atoms: _581  and  _582
REMARK  240  A    between atoms: _585  and  _587
REMARK  241  A    between atoms: _587  and  _588
REMARK  242  A    between atoms: _590  and  _592
REMARK  243  A    between atoms: _592  and  _593
REMARK  244  A    between atoms: _596  and  _598
REMARK  245  A    between atoms: _598  and  _599
REMARK  246  A    between atoms: _598  and  _601
REMARK  247  A    between atoms: _601  and  _602
REMARK  248  A    between atoms: _607  and  _608
REMARK                            x       y       z     vdW  Elec       q    Type
REMARK                         _______ _______ _______ _____ _____    ______ ____
ROOT
ATOM      1  O   HOH     1      35.467  24.661  37.843  0.00  0.00    +0.000 OA
ENDROOT
TORSDOF 0
REMARK  Name = ../refined-set-2016/4el5/4el5_pocket.pdb
REMARK  248 active torsions:
REMARK  status: ('A' for Active; 'I' for Inactive)
REMARK    1  A    between atoms: _1  and  _3
REMARK    2  A    between atoms: _3  and  _4
REMARK    3  A    between atoms: _3  and  _6
REMARK    4  A    between atoms: _6  and  _7
REMARK    5  A    between atoms: _12  and  _13
REMARK    6  A    between atoms: _15  and  _17
REMARK    7  A    between atoms: _17  and  _18
REMARK    8  A    between atoms: _17  and  _20
REMARK    9  A    between atoms: _20  and  _21
REMARK   10  A    between atoms: _21  and  _22
REMARK   11  A    between atoms: _25  and  _27
REMARK   12  A    between atoms: _27  and  _28
REMARK   13  A    between atoms: _27  and  _30
REMARK   14  A    between atoms: _30  and  _31
REMARK   15  A    between atoms: _36  and  _38
REMARK   16  A    between atoms: _38  and  _39
REMARK   17  A    between atoms: _41  and  _43
REMARK   18  A    between atoms: _43  and  _44
REMARK   19  A    between atoms: _46  and  _48
REMARK   20  A    between atoms: _48  and  _49
REMARK   21  A    between atoms: _48  and  _51
REMARK   22  A    between atoms: _51  and  _52
REMARK   23  A    between atoms: _55  and  _57
REMARK   24  A    between atoms: _57  and  _58
REMARK   25  A    between atoms: _60  and  _62
REMARK   26  A    between atoms: _62  and  _63
REMARK   27  A    between atoms: _62  and  _65
REMARK   28  A    between atoms: _65  and  _66
REMARK   29  A    between atoms: _66  and  _67
REMARK   30  A    between atoms: _67  and  _68
REMARK   31  A    between atoms: _77  and  _79
REMARK   32  A    between atoms: _79  and  _80
REMARK   33  A    between atoms: _79  and  _82
REMARK   34  A    between atoms: _82  and  _83
REMARK   35  A    between atoms: _86  and  _88
REMARK   36  A    between atoms: _88  and  _89
REMARK   37  A    between atoms: _92  and  _94
REMARK   38  A    between atoms: _94  and  _95
REMARK   39  A    between atoms: _94  and  _97
REMARK   40  A    between atoms: _97  and  _98
REMARK   41  A    between atoms: _104  and  _106
REMARK   42  A    between atoms: _106  and  _107
REMARK   43  A    between atoms: _106  and  _109
REMARK   44  A    between atoms: _109  and  _110
REMARK   45  A    between atoms: _115  and  _117
REMARK   46  A    between atoms: _117  and  _118
REMARK   47  A    between atoms: _117  and  _120
REMARK   48  A    between atoms: _120  and  _121
REMARK   49  A    between atoms: _124  and  _126
REMARK   50  A    between atoms: _126  and  _127
REMARK   51  A    between atoms: _126  and  _129
REMARK   52  A    between atoms: _129  and  _130
REMARK   53  A    between atoms: _135  and  _137
REMARK   54  A    between atoms: _137  and  _138
REMARK   55  A    between atoms: _137  and  _140
REMARK   56  A    between atoms: _140  and  _141
REMARK   57  A    between atoms: _147  and  _149
REMARK   58  A    between atoms: _149  and  _150
REMARK   59  A    between atoms: _149  and  _152
REMARK   60  A    between atoms: _152  and  _153
REMARK   61  A    between atoms: _159  and  _161
REMARK   62  A    between atoms: _161  and  _162
REMARK   63  A    between atoms: _161  and  _164
REMARK   64  A    between atoms: _164  and  _165
REMARK   65  A    between atoms: _165  and  _166
REMARK   66  A    between atoms: _166  and  _167
REMARK   67  A    between atoms: _176  and  _178
REMARK   68  A    between atoms: _178  and  _179
REMARK   69  A    between atoms: _178  and  _181
REMARK   70  A    between atoms: _181  and  _182
REMARK   71  A    between atoms: _187  and  _189
REMARK   72  A    between atoms: _189  and  _190
REMARK   73  A    between atoms: _189  and  _192
REMARK   74  A    between atoms: _192  and  _193
REMARK   75  A    between atoms: _196  and  _198
REMARK   76  A    between atoms: _198  and  _199
REMARK   77  A    between atoms: _198  and  _201
REMARK   78  A    between atoms: _201  and  _202
REMARK   79  A    between atoms: _205  and  _207
REMARK   80  A    between atoms: _207  and  _208
REMARK   81  A    between atoms: _207  and  _210
REMARK   82  A    between atoms: _210  and  _211
REMARK   83  A    between atoms: _216  and  _218
REMARK   84  A    between atoms: _218  and  _219
REMARK   85  A    between atoms: _218  and  _221
REMARK   86  A    between atoms: _221  and  _222
REMARK   87  A    between atoms: _227  and  _228
REMARK   88  A    between atoms: _230  and  _232
REMARK   89  A    between atoms: _232  and  _233
REMARK   90  A    between atoms: _232  and  _235
REMARK   91  A    between atoms: _235  and  _236
REMARK   92  A    between atoms: _239  and  _241
REMARK   93  A    between atoms: _241  and  _242
REMARK   94  A    between atoms: _241  and  _244
REMARK   95  A    between atoms: _244  and  _245
REMARK   96  A    between atoms: _250  and  _252
REMARK   97  A    between atoms: _252  and  _253
REMARK   98  A    between atoms: _252  and  _255
REMARK   99  A    between atoms: _255  and  _256
REMARK  100  A    between atoms: _261  and  _263
REMARK  101  A    between atoms: _263  and  _264
REMARK  102  A    between atoms: _263  and  _266
REMARK  103  A    between atoms: _266  and  _267
REMARK  104  A    between atoms: _270  and  _272
REMARK  105  A    between atoms: _272  and  _273
REMARK  106  A    between atoms: _272  and  _275
REMARK  107  A    between atoms: _278  and  _280
REMARK  108  A    between atoms: _280  and  _281
REMARK  109  A    between atoms: _280  and  _283
REMARK  110  A    between atoms: _283  and  _284
REMARK  111  A    between atoms: _287  and  _289
REMARK  112  A    between atoms: _289  and  _290
REMARK  113  A    between atoms: _289  and  _292
REMARK  114  A    between atoms: _292  and  _293
REMARK  115  A    between atoms: _293  and  _294
REMARK  116  A    between atoms: _297  and  _299
REMARK  117  A    between atoms: _299  and  _300
REMARK  118  A    between atoms: _303  and  _305
REMARK  119  A    between atoms: _305  and  _306
REMARK  120  A    between atoms: _305  and  _308
REMARK  121  A    between atoms: _308  and  _309
REMARK  122  A    between atoms: _312  and  _314
REMARK  123  A    between atoms: _314  and  _315
REMARK  124  A    between atoms: _314  and  _317
REMARK  125  A    between atoms: _317  and  _318
REMARK  126  A    between atoms: _318  and  _319
REMARK  127  A    between atoms: _322  and  _324
REMARK  128  A    between atoms: _324  and  _325
REMARK  129  A    between atoms: _324  and  _327
REMARK  130  A    between atoms: _327  and  _328
REMARK  131  A    between atoms: _333  and  _335
REMARK  132  A    between atoms: _335  and  _336
REMARK  133  A    between atoms: _338  and  _340
REMARK  134  A    between atoms: _340  and  _341
REMARK  135  A    between atoms: _340  and  _343
REMARK  136  A    between atoms: _346  and  _348
REMARK  137  A    between atoms: _348  and  _349
REMARK  138  A    between atoms: _352  and  _354
REMARK  139  A    between atoms: _354  and  _355
REMARK  140  A    between atoms: _354  and  _357
REMARK  141  A    between atoms: _357  and  _358
REMARK  142  A    between atoms: _363  and  _365
REMARK  143  A    between atoms: _365  and  _366
REMARK  144  A    between atoms: _365  and  _368
REMARK  145  A    between atoms: _368  and  _369
REMARK  146  A    between atoms: _369  and  _370
REMARK  147  A    between atoms: _370  and  _371
REMARK  148  A    between atoms: _371  and  _372
REMARK  149  A    between atoms: _376  and  _378
REMARK  150  A    between atoms: _378  and  _379
REMARK  151  A    between atoms: _378  and  _381
REMARK  152  A    between atoms: _381  and  _382
REMARK  153  A    between atoms: _385  and  _387
REMARK  154  A    between atoms: _387  and  _388
REMARK  155  A    between atoms: _387  and  _390
REMARK  156  A    between atoms: _390  and  _391
REMARK  157  A    between atoms: _396  and  _398
REMARK  158  A    between atoms: _398  and  _399
REMARK  159  A    between atoms: _401  and  _403
REMARK  160  A    between atoms: _403  and  _404
REMARK  161  A    between atoms: _403  and  _406
REMARK  162  A    between atoms: _406  and  _407
REMARK  163  A    between atoms: _407  and  _408
REMARK  164  A    between atoms: _408  and  _409
REMARK  165  A    between atoms: _409  and  _410
REMARK  166  A    between atoms: _414  and  _416
REMARK  167  A    between atoms: _416  and  _417
REMARK  168  A    between atoms: _416  and  _419
REMARK  169  A    between atoms: _419  and  _420
REMARK  170  A    between atoms: _420  and  _421
REMARK  171  A    between atoms: _421  and  _422
REMARK  172  A    between atoms: _431  and  _433
REMARK  173  A    between atoms: _433  and  _434
REMARK  174  A    between atoms: _433  and  _436
REMARK  175  A    between atoms: _436  and  _437
REMARK  176  A    between atoms: _442  and  _444
REMARK  177  A    between atoms: _444  and  _445
REMARK  178  A    between atoms: _444  and  _447
REMARK  179  A    between atoms: _447  and  _448
REMARK  180  A    between atoms: _453  and  _454
REMARK  181  A    between atoms: _456  and  _458
REMARK  182  A    between atoms: _458  and  _459
REMARK  183  A    between atoms: _458  and  _461
REMARK  184  A    between atoms: _461  and  _462
REMARK  185  A    between atoms: _462  and  _463
REMARK  186  A    between atoms: _463  and  _464
REMARK  187  A    between atoms: _464  and  _465
REMARK  188  A    between atoms: _469  and  _471
REMARK  189  A    between atoms: _471  and  _472
REMARK  190  A    between atoms: _471  and  _474
REMARK  191  A    between atoms: _474  and  _475
REMARK  192  A    between atoms: _477  and  _479
REMARK  193  A    between atoms: _479  and  _480
REMARK  194  A    between atoms: _479  and  _482
REMARK  195  A    between atoms: _482  and  _483
REMARK  196  A    between atoms: _486  and  _488
REMARK  197  A    between atoms: _488  and  _489
REMARK  198  A    between atoms: _488  and  _491
REMARK  199  A    between atoms: _491  and  _492
REMARK  200  A    between atoms: _492  and  _493
REMARK  201  A    between atoms: _496  and  _498
REMARK  202  A    between atoms: _498  and  _499
REMARK  203  A    between atoms: _502  and  _504
REMARK  204  A    between atoms: _504  and  _505
REMARK  205  A    between atoms: _504  and  _507
REMARK  206  A    between atoms: _507  and  _508
REMARK  207  A    between atoms: _510  and  _512
REMARK  208  A    between atoms: _512  and  _513
REMARK  209  A    between atoms: _515  and  _517
REMARK  210  A    between atoms: _517  and  _518
REMARK  211  A    between atoms: _517  and  _520
REMARK  212  A    between atoms: _520  and  _521
REMARK  213  A    between atoms: _524  and  _526
REMARK  214  A    between atoms: _526  and  _527
REMARK  215  A    between atoms: _529  and  _531
REMARK  216  A    between atoms: _531  and  _532
REMARK  217  A    between atoms: _531  and  _534
REMARK  218  A    between atoms: _534  and  _535
REMARK  219  A    between atoms: _540  and  _542
REMARK  220  A    between atoms: _542  and  _543
REMARK  221  A    between atoms: _542  and  _545
REMARK  222  A    between atoms: _545  and  _546
REMARK  223  A    between atoms: _546  and  _547
REMARK  224  A    between atoms: _554  and  _555
REMARK  225  A    between atoms: _555  and  _571
REMARK  226  A    between atoms: _556  and  _558
REMARK  227  A    between atoms: _558  and  _559
REMARK  228  A    between atoms: _559  and  _560
REMARK  229  A    between atoms: _564  and  _566
REMARK  230  A    between atoms: _566  and  _567
REMARK  231  A    between atoms: _566  and  _574
REMARK  232  A    between atoms: _567  and  _568
REMARK  233  A    between atoms: _568  and  _569
REMARK  234  A    between atoms: _569  and  _570
REMARK  235  A    between atoms: _570  and  _571
REMARK  236  A    between atoms: _576  and  _578
REMARK  237  A    between atoms: _578  and  _579
REMARK  238  A    between atoms: _578  and  _581
REMARK  239  A    between atoms: _581  and  _582
REMARK  240  A    between atoms: _585  and  _587
REMARK  241  A    between atoms: _587  and  _588
REMARK  242  A    between atoms: _590  and  _592
REMARK  243  A    between atoms: _592  and  _593
REMARK  244  A    between atoms: _596  and  _598
REMARK  245  A    between atoms: _598  and  _599
REMARK  246  A    between atoms: _598  and  _601
REMARK  247  A    between atoms: _601  and  _602
REMARK  248  A    between atoms: _607  and  _608
REMARK                            x       y       z     vdW  Elec       q    Type
REMARK                         _______ _______ _______ _____ _____    ______ ____
ROOT
ATOM      1  O   HOH     1      34.728  25.362  34.413  0.00  0.00    +0.000 OA
ENDROOT
TORSDOF 0
