REMARK  Name = ../refined-set-2016/1dif/1dif_pocket.pdb
REMARK  228 active torsions:
REMARK  status: ('A' for Active; 'I' for Inactive)
REMARK    1  A    between atoms: _1  and  _3
REMARK    2  A    between atoms: _3  and  _4
REMARK    3  A    between atoms: _3  and  _6
REMARK    4  A    between atoms: _6  and  _7
REMARK    5  A    between atoms: _7  and  _8
REMARK    6  A    between atoms: _8  and  _9
REMARK    7  A    between atoms: _19  and  _20
REMARK    8  A    between atoms: _25  and  _27
REMARK    9  A    between atoms: _27  and  _28
REMARK   10  A    between atoms: _27  and  _30
REMARK   11  A    between atoms: _30  and  _31
REMARK   12  A    between atoms: _34  and  _36
REMARK   13  A    between atoms: _36  and  _37
REMARK   14  A    between atoms: _36  and  _39
REMARK   15  A    between atoms: _39  and  _40
REMARK   16  A    between atoms: _43  and  _45
REMARK   17  A    between atoms: _45  and  _46
REMARK   18  A    between atoms: _45  and  _48
REMARK   19  A    between atoms: _48  and  _49
REMARK   20  A    between atoms: _52  and  _54
REMARK   21  A    between atoms: _54  and  _55
REMARK   22  A    between atoms: _54  and  _57
REMARK   23  A    between atoms: _57  and  _58
REMARK   24  A    between atoms: _61  and  _63
REMARK   25  A    between atoms: _63  and  _64
REMARK   26  A    between atoms: _63  and  _66
REMARK   27  A    between atoms: _66  and  _67
REMARK   28  A    between atoms: _70  and  _72
REMARK   29  A    between atoms: _72  and  _73
REMARK   30  A    between atoms: _75  and  _77
REMARK   31  A    between atoms: _77  and  _78
REMARK   32  A    between atoms: _81  and  _83
REMARK   33  A    between atoms: _83  and  _84
REMARK   34  A    between atoms: _83  and  _86
REMARK   35  A    between atoms: _86  and  _87
REMARK   36  A    between atoms: _90  and  _92
REMARK   37  A    between atoms: _92  and  _93
REMARK   38  A    between atoms: _92  and  _95
REMARK   39  A    between atoms: _95  and  _96
REMARK   40  A    between atoms: _99  and  _101
REMARK   41  A    between atoms: _101  and  _102
REMARK   42  A    between atoms: _101  and  _104
REMARK   43  A    between atoms: _104  and  _105
REMARK   44  A    between atoms: _108  and  _110
REMARK   45  A    between atoms: _110  and  _111
REMARK   46  A    between atoms: _110  and  _113
REMARK   47  A    between atoms: _116  and  _118
REMARK   48  A    between atoms: _118  and  _119
REMARK   49  A    between atoms: _118  and  _121
REMARK   50  A    between atoms: _121  and  _122
REMARK   51  A    between atoms: _122  and  _123
REMARK   52  A    between atoms: _123  and  _124
REMARK   53  A    between atoms: _124  and  _125
REMARK   54  A    between atoms: _129  and  _131
REMARK   55  A    between atoms: _131  and  _132
REMARK   56  A    between atoms: _131  and  _134
REMARK   57  A    between atoms: _134  and  _135
REMARK   58  A    between atoms: _135  and  _136
REMARK   59  A    between atoms: _138  and  _140
REMARK   60  A    between atoms: _140  and  _141
REMARK   61  A    between atoms: _140  and  _143
REMARK   62  A    between atoms: _143  and  _144
REMARK   63  A    between atoms: _147  and  _149
REMARK   64  A    between atoms: _149  and  _150
REMARK   65  A    between atoms: _152  and  _154
REMARK   66  A    between atoms: _154  and  _155
REMARK   67  A    between atoms: _157  and  _159
REMARK   68  A    between atoms: _159  and  _160
REMARK   69  A    between atoms: _159  and  _162
REMARK   70  A    between atoms: _162  and  _163
REMARK   71  A    between atoms: _166  and  _168
REMARK   72  A    between atoms: _168  and  _169
REMARK   73  A    between atoms: _171  and  _173
REMARK   74  A    between atoms: _173  and  _174
REMARK   75  A    between atoms: _176  and  _178
REMARK   76  A    between atoms: _178  and  _179
REMARK   77  A    between atoms: _178  and  _181
REMARK   78  A    between atoms: _181  and  _182
REMARK   79  A    between atoms: _188  and  _190
REMARK   80  A    between atoms: _190  and  _191
REMARK   81  A    between atoms: _190  and  _193
REMARK   82  A    between atoms: _193  and  _194
REMARK   83  A    between atoms: _197  and  _199
REMARK   84  A    between atoms: _199  and  _200
REMARK   85  A    between atoms: _199  and  _202
REMARK   86  A    between atoms: _205  and  _207
REMARK   87  A    between atoms: _207  and  _208
REMARK   88  A    between atoms: _207  and  _210
REMARK   89  A    between atoms: _210  and  _211
REMARK   90  A    between atoms: _215  and  _216
REMARK   91  A    between atoms: _221  and  _223
REMARK   92  A    between atoms: _223  and  _224
REMARK   93  A    between atoms: _223  and  _226
REMARK   94  A    between atoms: _226  and  _227
REMARK   95  A    between atoms: _231  and  _232
REMARK   96  A    between atoms: _237  and  _239
REMARK   97  A    between atoms: _239  and  _240
REMARK   98  A    between atoms: _239  and  _242
REMARK   99  A    between atoms: _245  and  _247
REMARK  100  A    between atoms: _247  and  _248
REMARK  101  A    between atoms: _247  and  _250
REMARK  102  A    between atoms: _250  and  _251
REMARK  103  A    between atoms: _256  and  _258
REMARK  104  A    between atoms: _258  and  _259
REMARK  105  A    between atoms: _258  and  _261
REMARK  106  A    between atoms: _261  and  _262
REMARK  107  A    between atoms: _265  and  _267
REMARK  108  A    between atoms: _267  and  _268
REMARK  109  A    between atoms: _267  and  _270
REMARK  110  A    between atoms: _270  and  _271
REMARK  111  A    between atoms: _274  and  _276
REMARK  112  A    between atoms: _276  and  _277
REMARK  113  A    between atoms: _279  and  _281
REMARK  114  A    between atoms: _281  and  _282
REMARK  115  A    between atoms: _281  and  _284
REMARK  116  A    between atoms: _284  and  _285
REMARK  117  A    between atoms: _285  and  _286
REMARK  118  A    between atoms: _286  and  _287
REMARK  119  A    between atoms: _296  and  _298
REMARK  120  A    between atoms: _298  and  _299
REMARK  121  A    between atoms: _298  and  _301
REMARK  122  A    between atoms: _301  and  _302
REMARK  123  A    between atoms: _302  and  _303
REMARK  124  A    between atoms: _303  and  _304
REMARK  125  A    between atoms: _314  and  _315
REMARK  126  A    between atoms: _320  and  _322
REMARK  127  A    between atoms: _322  and  _323
REMARK  128  A    between atoms: _322  and  _325
REMARK  129  A    between atoms: _325  and  _326
REMARK  130  A    between atoms: _329  and  _331
REMARK  131  A    between atoms: _331  and  _332
REMARK  132  A    between atoms: _331  and  _334
REMARK  133  A    between atoms: _334  and  _335
REMARK  134  A    between atoms: _338  and  _340
REMARK  135  A    between atoms: _340  and  _341
REMARK  136  A    between atoms: _340  and  _343
REMARK  137  A    between atoms: _343  and  _344
REMARK  138  A    between atoms: _347  and  _349
REMARK  139  A    between atoms: _349  and  _350
REMARK  140  A    between atoms: _349  and  _352
REMARK  141  A    between atoms: _352  and  _353
REMARK  142  A    between atoms: _356  and  _358
REMARK  143  A    between atoms: _358  and  _359
REMARK  144  A    between atoms: _358  and  _361
REMARK  145  A    between atoms: _361  and  _362
REMARK  146  A    between atoms: _365  and  _367
REMARK  147  A    between atoms: _367  and  _368
REMARK  148  A    between atoms: _370  and  _372
REMARK  149  A    between atoms: _372  and  _373
REMARK  150  A    between atoms: _376  and  _378
REMARK  151  A    between atoms: _378  and  _379
REMARK  152  A    between atoms: _378  and  _381
REMARK  153  A    between atoms: _381  and  _382
REMARK  154  A    between atoms: _385  and  _387
REMARK  155  A    between atoms: _387  and  _388
REMARK  156  A    between atoms: _387  and  _390
REMARK  157  A    between atoms: _390  and  _391
REMARK  158  A    between atoms: _394  and  _396
REMARK  159  A    between atoms: _396  and  _397
REMARK  160  A    between atoms: _396  and  _399
REMARK  161  A    between atoms: _399  and  _400
REMARK  162  A    between atoms: _403  and  _405
REMARK  163  A    between atoms: _405  and  _406
REMARK  164  A    between atoms: _405  and  _408
REMARK  165  A    between atoms: _411  and  _413
REMARK  166  A    between atoms: _413  and  _414
REMARK  167  A    between atoms: _413  and  _416
REMARK  168  A    between atoms: _416  and  _417
REMARK  169  A    between atoms: _417  and  _418
REMARK  170  A    between atoms: _420  and  _422
REMARK  171  A    between atoms: _422  and  _423
REMARK  172  A    between atoms: _422  and  _425
REMARK  173  A    between atoms: _425  and  _426
REMARK  174  A    between atoms: _429  and  _431
REMARK  175  A    between atoms: _431  and  _432
REMARK  176  A    between atoms: _434  and  _436
REMARK  177  A    between atoms: _436  and  _437
REMARK  178  A    between atoms: _439  and  _441
REMARK  179  A    between atoms: _441  and  _442
REMARK  180  A    between atoms: _441  and  _444
REMARK  181  A    between atoms: _444  and  _445
REMARK  182  A    between atoms: _448  and  _450
REMARK  183  A    between atoms: _450  and  _451
REMARK  184  A    between atoms: _453  and  _455
REMARK  185  A    between atoms: _455  and  _456
REMARK  186  A    between atoms: _458  and  _460
REMARK  187  A    between atoms: _460  and  _461
REMARK  188  A    between atoms: _460  and  _463
REMARK  189  A    between atoms: _463  and  _464
REMARK  190  A    between atoms: _470  and  _472
REMARK  191  A    between atoms: _472  and  _473
REMARK  192  A    between atoms: _472  and  _475
REMARK  193  A    between atoms: _475  and  _476
REMARK  194  A    between atoms: _479  and  _481
REMARK  195  A    between atoms: _481  and  _482
REMARK  196  A    between atoms: _481  and  _484
REMARK  197  A    between atoms: _487  and  _489
REMARK  198  A    between atoms: _489  and  _490
REMARK  199  A    between atoms: _489  and  _492
REMARK  200  A    between atoms: _492  and  _493
REMARK  201  A    between atoms: _496  and  _498
REMARK  202  A    between atoms: _498  and  _499
REMARK  203  A    between atoms: _498  and  _501
REMARK  204  A    between atoms: _501  and  _502
REMARK  205  A    between atoms: _506  and  _507
REMARK  206  A    between atoms: _512  and  _514
REMARK  207  A    between atoms: _514  and  _515
REMARK  208  A    between atoms: _514  and  _517
REMARK  209  A    between atoms: _520  and  _522
REMARK  210  A    between atoms: _522  and  _523
REMARK  211  A    between atoms: _522  and  _525
REMARK  212  A    between atoms: _525  and  _526
REMARK  213  A    between atoms: _531  and  _533
REMARK  214  A    between atoms: _533  and  _534
REMARK  215  A    between atoms: _533  and  _536
REMARK  216  A    between atoms: _536  and  _537
REMARK  217  A    between atoms: _540  and  _542
REMARK  218  A    between atoms: _542  and  _543
REMARK  219  A    between atoms: _542  and  _545
REMARK  220  A    between atoms: _545  and  _546
REMARK  221  A    between atoms: _549  and  _551
REMARK  222  A    between atoms: _551  and  _552
REMARK  223  A    between atoms: _554  and  _556
REMARK  224  A    between atoms: _556  and  _557
REMARK  225  A    between atoms: _556  and  _559
REMARK  226  A    between atoms: _559  and  _560
REMARK  227  A    between atoms: _560  and  _561
REMARK  228  A    between atoms: _561  and  _562
REMARK                            x       y       z     vdW  Elec       q    Type
REMARK                         _______ _______ _______ _____ _____    ______ ____
ROOT
ATOM      1  C   ARG A   1       2.098  -3.625  27.479  0.00  0.00    +0.241 C 
ATOM      2  O   ARG A   1       1.372  -4.000  28.367  0.00  0.00    -0.273 OA
ATOM      3  N   PRO A   2       1.999  -2.427  26.929  0.00  0.00    -0.272 N 
ATOM      4  CA  PRO A   2       0.983  -1.494  27.411  0.00  0.00    +0.152 C 
ATOM      5  CB  PRO A   2       1.571  -0.130  27.056  0.00  0.00    +0.031 C 
ATOM      6  CG  PRO A   2       2.553  -0.404  25.931  0.00  0.00    +0.024 C 
ATOM      7  CD  PRO A   2       3.018  -1.845  26.094  0.00  0.00    +0.094 C 
ENDROOT
BRANCH   4   8
ATOM      8  C   PRO A   2      -0.396  -1.707  26.810  0.00  0.00    +0.241 C 
ATOM      9  N   LEU A   3      -1.013  -2.790  27.211  0.00  0.00    -0.298 N 
ATOM     10  H   LEU A   3      -0.546  -3.418  27.896  0.00  0.00    +0.150 HD
ATOM     11  O   PRO A   2      -0.898  -0.928  26.015  0.00  0.00    -0.273 OA
BRANCH   9  12
ATOM     12  CA  LEU A   3      -2.333  -3.133  26.720  0.00  0.00    +0.137 C 
BRANCH  12  13
ATOM     13  C   LEU A   3      -3.407  -2.555  27.605  0.00  0.00    +0.227 C 
ATOM     14  O   LEU A   3      -3.301  -2.651  28.820  0.00  0.00    -0.286 OA
ENDBRANCH  12  13
BRANCH  12  15
ATOM     15  CB  LEU A   3      -2.438  -4.645  26.734  0.00  0.00    +0.028 C 
BRANCH  15  16
ATOM     16  CG  LEU A   3      -1.488  -5.308  25.745  0.00  0.00    +0.002 C 
ATOM     17  CD2 LEU A   3      -1.157  -6.730  26.219  0.00  0.00    +0.000 C 
ATOM     18  CD1 LEU A   3      -2.081  -5.252  24.329  0.00  0.00    +0.000 C 
ENDBRANCH  15  16
ENDBRANCH  12  15
ENDBRANCH   9  12
ENDBRANCH   4   8
BRANCH   1  19
ATOM     19  CA  ARG A   1       3.162  -4.553  26.990  0.00  0.00    +0.145 C 
BRANCH  19  20
ATOM     20  N   ARG A   1       3.776  -5.251  28.104  0.00  0.00    -0.238 NA
ATOM     21  H   ARG A   1       3.740  -6.289  28.155  0.00  0.00    +0.142 HD
ENDBRANCH  19  20
BRANCH  19  22
ATOM     22  CB  ARG A   1       2.528  -5.540  26.022  0.00  0.00    +0.030 C 
BRANCH  22  23
ATOM     23  CG  ARG A   1       3.601  -6.371  25.335  0.00  0.00    +0.045 C 
BRANCH  23  24
ATOM     24  CD  ARG A   1       2.995  -7.490  24.495  0.00  0.00    +0.174 C 
BRANCH  24  25
ATOM     25  NE  ARG A   1       4.053  -8.294  23.873  0.00  0.00    -0.265 N 
ATOM     26  HE  ARG A   1       5.010  -7.897  23.784  0.00  0.00    +0.259 HD
ATOM     27  CZ  ARG A   1       3.807  -9.541  23.413  0.00  0.00    +0.342 C 
ATOM     28  NH2 ARG A   1       2.586 -10.080  23.445  0.00  0.00    -0.292 N 
ATOM     29 HH21 ARG A   1       1.788  -9.537  23.833  0.00  0.00    +0.255 HD
ATOM     30 HH22 ARG A   1       2.433 -11.043  23.082  0.00  0.00    +0.255 HD
ATOM     31  NH1 ARG A   1       4.822 -10.247  22.921  0.00  0.00    -0.292 N 
ATOM     32 HH11 ARG A   1       5.777  -9.837  22.897  0.00  0.00    +0.255 HD
ATOM     33 HH12 ARG A   1       4.660 -11.209  22.561  0.00  0.00    +0.255 HD
ENDBRANCH  24  25
ENDBRANCH  23  24
ENDBRANCH  22  23
ENDBRANCH  19  22
ENDBRANCH   1  19
TORSDOF 11
REMARK  Name = ../refined-set-2016/1dif/1dif_pocket.pdb
REMARK  228 active torsions:
REMARK  status: ('A' for Active; 'I' for Inactive)
REMARK    1  A    between atoms: _1  and  _3
REMARK    2  A    between atoms: _3  and  _4
REMARK    3  A    between atoms: _3  and  _6
REMARK    4  A    between atoms: _6  and  _7
REMARK    5  A    between atoms: _7  and  _8
REMARK    6  A    between atoms: _8  and  _9
REMARK    7  A    between atoms: _19  and  _20
REMARK    8  A    between atoms: _25  and  _27
REMARK    9  A    between atoms: _27  and  _28
REMARK   10  A    between atoms: _27  and  _30
REMARK   11  A    between atoms: _30  and  _31
REMARK   12  A    between atoms: _34  and  _36
REMARK   13  A    between atoms: _36  and  _37
REMARK   14  A    between atoms: _36  and  _39
REMARK   15  A    between atoms: _39  and  _40
REMARK   16  A    between atoms: _43  and  _45
REMARK   17  A    between atoms: _45  and  _46
REMARK   18  A    between atoms: _45  and  _48
REMARK   19  A    between atoms: _48  and  _49
REMARK   20  A    between atoms: _52  and  _54
REMARK   21  A    between atoms: _54  and  _55
REMARK   22  A    between atoms: _54  and  _57
REMARK   23  A    between atoms: _57  and  _58
REMARK   24  A    between atoms: _61  and  _63
REMARK   25  A    between atoms: _63  and  _64
REMARK   26  A    between atoms: _63  and  _66
REMARK   27  A    between atoms: _66  and  _67
REMARK   28  A    between atoms: _70  and  _72
REMARK   29  A    between atoms: _72  and  _73
REMARK   30  A    between atoms: _75  and  _77
REMARK   31  A    between atoms: _77  and  _78
REMARK   32  A    between atoms: _81  and  _83
REMARK   33  A    between atoms: _83  and  _84
REMARK   34  A    between atoms: _83  and  _86
REMARK   35  A    between atoms: _86  and  _87
REMARK   36  A    between atoms: _90  and  _92
REMARK   37  A    between atoms: _92  and  _93
REMARK   38  A    between atoms: _92  and  _95
REMARK   39  A    between atoms: _95  and  _96
REMARK   40  A    between atoms: _99  and  _101
REMARK   41  A    between atoms: _101  and  _102
REMARK   42  A    between atoms: _101  and  _104
REMARK   43  A    between atoms: _104  and  _105
REMARK   44  A    between atoms: _108  and  _110
REMARK   45  A    between atoms: _110  and  _111
REMARK   46  A    between atoms: _110  and  _113
REMARK   47  A    between atoms: _116  and  _118
REMARK   48  A    between atoms: _118  and  _119
REMARK   49  A    between atoms: _118  and  _121
REMARK   50  A    between atoms: _121  and  _122
REMARK   51  A    between atoms: _122  and  _123
REMARK   52  A    between atoms: _123  and  _124
REMARK   53  A    between atoms: _124  and  _125
REMARK   54  A    between atoms: _129  and  _131
REMARK   55  A    between atoms: _131  and  _132
REMARK   56  A    between atoms: _131  and  _134
REMARK   57  A    between atoms: _134  and  _135
REMARK   58  A    between atoms: _135  and  _136
REMARK   59  A    between atoms: _138  and  _140
REMARK   60  A    between atoms: _140  and  _141
REMARK   61  A    between atoms: _140  and  _143
REMARK   62  A    between atoms: _143  and  _144
REMARK   63  A    between atoms: _147  and  _149
REMARK   64  A    between atoms: _149  and  _150
REMARK   65  A    between atoms: _152  and  _154
REMARK   66  A    between atoms: _154  and  _155
REMARK   67  A    between atoms: _157  and  _159
REMARK   68  A    between atoms: _159  and  _160
REMARK   69  A    between atoms: _159  and  _162
REMARK   70  A    between atoms: _162  and  _163
REMARK   71  A    between atoms: _166  and  _168
REMARK   72  A    between atoms: _168  and  _169
REMARK   73  A    between atoms: _171  and  _173
REMARK   74  A    between atoms: _173  and  _174
REMARK   75  A    between atoms: _176  and  _178
REMARK   76  A    between atoms: _178  and  _179
REMARK   77  A    between atoms: _178  and  _181
REMARK   78  A    between atoms: _181  and  _182
REMARK   79  A    between atoms: _188  and  _190
REMARK   80  A    between atoms: _190  and  _191
REMARK   81  A    between atoms: _190  and  _193
REMARK   82  A    between atoms: _193  and  _194
REMARK   83  A    between atoms: _197  and  _199
REMARK   84  A    between atoms: _199  and  _200
REMARK   85  A    between atoms: _199  and  _202
REMARK   86  A    between atoms: _205  and  _207
REMARK   87  A    between atoms: _207  and  _208
REMARK   88  A    between atoms: _207  and  _210
REMARK   89  A    between atoms: _210  and  _211
REMARK   90  A    between atoms: _215  and  _216
REMARK   91  A    between atoms: _221  and  _223
REMARK   92  A    between atoms: _223  and  _224
REMARK   93  A    between atoms: _223  and  _226
REMARK   94  A    between atoms: _226  and  _227
REMARK   95  A    between atoms: _231  and  _232
REMARK   96  A    between atoms: _237  and  _239
REMARK   97  A    between atoms: _239  and  _240
REMARK   98  A    between atoms: _239  and  _242
REMARK   99  A    between atoms: _245  and  _247
REMARK  100  A    between atoms: _247  and  _248
REMARK  101  A    between atoms: _247  and  _250
REMARK  102  A    between atoms: _250  and  _251
REMARK  103  A    between atoms: _256  and  _258
REMARK  104  A    between atoms: _258  and  _259
REMARK  105  A    between atoms: _258  and  _261
REMARK  106  A    between atoms: _261  and  _262
REMARK  107  A    between atoms: _265  and  _267
REMARK  108  A    between atoms: _267  and  _268
REMARK  109  A    between atoms: _267  and  _270
REMARK  110  A    between atoms: _270  and  _271
REMARK  111  A    between atoms: _274  and  _276
REMARK  112  A    between atoms: _276  and  _277
REMARK  113  A    between atoms: _279  and  _281
REMARK  114  A    between atoms: _281  and  _282
REMARK  115  A    between atoms: _281  and  _284
REMARK  116  A    between atoms: _284  and  _285
REMARK  117  A    between atoms: _285  and  _286
REMARK  118  A    between atoms: _286  and  _287
REMARK  119  A    between atoms: _296  and  _298
REMARK  120  A    between atoms: _298  and  _299
REMARK  121  A    between atoms: _298  and  _301
REMARK  122  A    between atoms: _301  and  _302
REMARK  123  A    between atoms: _302  and  _303
REMARK  124  A    between atoms: _303  and  _304
REMARK  125  A    between atoms: _314  and  _315
REMARK  126  A    between atoms: _320  and  _322
REMARK  127  A    between atoms: _322  and  _323
REMARK  128  A    between atoms: _322  and  _325
REMARK  129  A    between atoms: _325  and  _326
REMARK  130  A    between atoms: _329  and  _331
REMARK  131  A    between atoms: _331  and  _332
REMARK  132  A    between atoms: _331  and  _334
REMARK  133  A    between atoms: _334  and  _335
REMARK  134  A    between atoms: _338  and  _340
REMARK  135  A    between atoms: _340  and  _341
REMARK  136  A    between atoms: _340  and  _343
REMARK  137  A    between atoms: _343  and  _344
REMARK  138  A    between atoms: _347  and  _349
REMARK  139  A    between atoms: _349  and  _350
REMARK  140  A    between atoms: _349  and  _352
REMARK  141  A    between atoms: _352  and  _353
REMARK  142  A    between atoms: _356  and  _358
REMARK  143  A    between atoms: _358  and  _359
REMARK  144  A    between atoms: _358  and  _361
REMARK  145  A    between atoms: _361  and  _362
REMARK  146  A    between atoms: _365  and  _367
REMARK  147  A    between atoms: _367  and  _368
REMARK  148  A    between atoms: _370  and  _372
REMARK  149  A    between atoms: _372  and  _373
REMARK  150  A    between atoms: _376  and  _378
REMARK  151  A    between atoms: _378  and  _379
REMARK  152  A    between atoms: _378  and  _381
REMARK  153  A    between atoms: _381  and  _382
REMARK  154  A    between atoms: _385  and  _387
REMARK  155  A    between atoms: _387  and  _388
REMARK  156  A    between atoms: _387  and  _390
REMARK  157  A    between atoms: _390  and  _391
REMARK  158  A    between atoms: _394  and  _396
REMARK  159  A    between atoms: _396  and  _397
REMARK  160  A    between atoms: _396  and  _399
REMARK  161  A    between atoms: _399  and  _400
REMARK  162  A    between atoms: _403  and  _405
REMARK  163  A    between atoms: _405  and  _406
REMARK  164  A    between atoms: _405  and  _408
REMARK  165  A    between atoms: _411  and  _413
REMARK  166  A    between atoms: _413  and  _414
REMARK  167  A    between atoms: _413  and  _416
REMARK  168  A    between atoms: _416  and  _417
REMARK  169  A    between atoms: _417  and  _418
REMARK  170  A    between atoms: _420  and  _422
REMARK  171  A    between atoms: _422  and  _423
REMARK  172  A    between atoms: _422  and  _425
REMARK  173  A    between atoms: _425  and  _426
REMARK  174  A    between atoms: _429  and  _431
REMARK  175  A    between atoms: _431  and  _432
REMARK  176  A    between atoms: _434  and  _436
REMARK  177  A    between atoms: _436  and  _437
REMARK  178  A    between atoms: _439  and  _441
REMARK  179  A    between atoms: _441  and  _442
REMARK  180  A    between atoms: _441  and  _444
REMARK  181  A    between atoms: _444  and  _445
REMARK  182  A    between atoms: _448  and  _450
REMARK  183  A    between atoms: _450  and  _451
REMARK  184  A    between atoms: _453  and  _455
REMARK  185  A    between atoms: _455  and  _456
REMARK  186  A    between atoms: _458  and  _460
REMARK  187  A    between atoms: _460  and  _461
REMARK  188  A    between atoms: _460  and  _463
REMARK  189  A    between atoms: _463  and  _464
REMARK  190  A    between atoms: _470  and  _472
REMARK  191  A    between atoms: _472  and  _473
REMARK  192  A    between atoms: _472  and  _475
REMARK  193  A    between atoms: _475  and  _476
REMARK  194  A    between atoms: _479  and  _481
REMARK  195  A    between atoms: _481  and  _482
REMARK  196  A    between atoms: _481  and  _484
REMARK  197  A    between atoms: _487  and  _489
REMARK  198  A    between atoms: _489  and  _490
REMARK  199  A    between atoms: _489  and  _492
REMARK  200  A    between atoms: _492  and  _493
REMARK  201  A    between atoms: _496  and  _498
REMARK  202  A    between atoms: _498  and  _499
REMARK  203  A    between atoms: _498  and  _501
REMARK  204  A    between atoms: _501  and  _502
REMARK  205  A    between atoms: _506  and  _507
REMARK  206  A    between atoms: _512  and  _514
REMARK  207  A    between atoms: _514  and  _515
REMARK  208  A    between atoms: _514  and  _517
REMARK  209  A    between atoms: _520  and  _522
REMARK  210  A    between atoms: _522  and  _523
REMARK  211  A    between atoms: _522  and  _525
REMARK  212  A    between atoms: _525  and  _526
REMARK  213  A    between atoms: _531  and  _533
REMARK  214  A    between atoms: _533  and  _534
REMARK  215  A    between atoms: _533  and  _536
REMARK  216  A    between atoms: _536  and  _537
REMARK  217  A    between atoms: _540  and  _542
REMARK  218  A    between atoms: _542  and  _543
REMARK  219  A    between atoms: _542  and  _545
REMARK  220  A    between atoms: _545  and  _546
REMARK  221  A    between atoms: _549  and  _551
REMARK  222  A    between atoms: _551  and  _552
REMARK  223  A    between atoms: _554  and  _556
REMARK  224  A    between atoms: _556  and  _557
REMARK  225  A    between atoms: _556  and  _559
REMARK  226  A    between atoms: _559  and  _560
REMARK  227  A    between atoms: _560  and  _561
REMARK  228  A    between atoms: _561  and  _562
REMARK                            x       y       z     vdW  Elec       q    Type
REMARK                         _______ _______ _______ _____ _____    ______ ____
ROOT
ATOM      1  C   GLY A   5       4.506   4.199  15.860  0.00  0.00    +0.243 C 
ATOM      2  N   ALA A   6       3.194   4.112  16.102  0.00  0.00    -0.297 N 
ATOM      3  H   ALA A   6       2.858   4.146  17.085  0.00  0.00    +0.150 HD
ATOM      4  O   GLY A   5       4.975   4.249  14.736  0.00  0.00    -0.273 OA
ENDROOT
BRANCH   2   5
ATOM      5  CA  ALA A   6       2.222   3.971  15.024  0.00  0.00    +0.149 C 
ATOM      6  CB  ALA A   6       1.077   2.992  15.387  0.00  0.00    +0.031 C 
BRANCH   5   7
ATOM      7  C   ALA A   6       1.578   5.306  14.766  0.00  0.00    +0.241 C 
ATOM      8  O   ALA A   6       1.071   5.960  15.674  0.00  0.00    -0.273 OA
ATOM      9  N   ASP A   7       1.526   5.709  13.501  0.00  0.00    -0.297 N 
ATOM     10  H   ASP A   7       1.985   5.165  12.742  0.00  0.00    +0.150 HD
BRANCH   9  11
ATOM     11  CA  ASP A   7       0.799   6.946  13.215  0.00  0.00    +0.160 C 
BRANCH  11  12
ATOM     12  C   ASP A   7      -0.705   6.745  13.300  0.00  0.00    +0.241 C 
ATOM     13  O   ASP A   7      -1.460   7.669  13.577  0.00  0.00    -0.273 OA
ATOM     14  N   ASP A   8      -1.137   5.501  13.012  0.00  0.00    -0.297 N 
ATOM     15  H   ASP A   8      -0.449   4.732  12.885  0.00  0.00    +0.150 HD
BRANCH  14  16
ATOM     16  CA  ASP A   8      -2.593   5.220  12.874  0.00  0.00    +0.160 C 
BRANCH  16  17
ATOM     17  C   ASP A   8      -3.053   4.183  13.908  0.00  0.00    +0.241 C 
ATOM     18  O   ASP A   8      -2.217   3.525  14.510  0.00  0.00    -0.273 OA
ATOM     19  N   THR A   9      -4.389   4.062  14.024  0.00  0.00    -0.295 N 
ATOM     20  H   THR A   9      -4.976   4.751  13.511  0.00  0.00    +0.150 HD
BRANCH  19  21
ATOM     21  CA  THR A   9      -5.083   3.047  14.808  0.00  0.00    +0.176 C 
BRANCH  21  22
ATOM     22  C   THR A   9      -5.581   1.953  13.875  0.00  0.00    +0.243 C 
ATOM     23  N   VAL A  10      -5.235   0.701  14.243  0.00  0.00    -0.298 N 
ATOM     24  H   VAL A  10      -4.732   0.587  15.146  0.00  0.00    +0.150 HD
ATOM     25  O   THR A   9      -6.232   2.250  12.872  0.00  0.00    -0.273 OA
BRANCH  23  26
ATOM     26  CA  VAL A  10      -5.513  -0.498  13.473  0.00  0.00    +0.137 C 
BRANCH  26  27
ATOM     27  CB  VAL A  10      -4.249  -1.058  12.756  0.00  0.00    +0.026 C 
ATOM     28  CG2 VAL A  10      -3.408   0.001  12.015  0.00  0.00    +0.002 C 
ATOM     29  CG1 VAL A  10      -4.664  -2.136  11.722  0.00  0.00    +0.002 C 
ENDBRANCH  26  27
BRANCH  26  30
ATOM     30  C   VAL A  10      -6.116  -1.523  14.418  0.00  0.00    +0.227 C 
ATOM     31  O   VAL A  10      -5.477  -1.937  15.360  0.00  0.00    -0.286 OA
ENDBRANCH  26  30
ENDBRANCH  23  26
ENDBRANCH  21  22
BRANCH  21  32
ATOM     32  CB  THR A   9      -6.240   3.703  15.566  0.00  0.00    +0.137 C 
ATOM     33  CG2 THR A   9      -7.054   2.723  16.392  0.00  0.00    +0.034 C 
BRANCH  32  34
ATOM     34  OG1 THR A   9      -5.648   4.652  16.457  0.00  0.00    -0.382 OA
ATOM     35  HG1 THR A   9      -5.140   5.322  15.934  0.00  0.00    +0.210 HD
ENDBRANCH  32  34
ENDBRANCH  21  32
ENDBRANCH  19  21
ENDBRANCH  16  17
BRANCH  16  36
ATOM     36  CB  ASP A   8      -2.907   4.726  11.442  0.00  0.00    +0.143 C 
BRANCH  36  37
ATOM     37  CG  ASP A   8      -2.502   5.774  10.408  0.00  0.00    +0.367 C 
ATOM     38  OD2 ASP A   8      -3.058   6.870  10.430  0.00  0.00    -0.246 OA
ATOM     39  OD1 ASP A   8      -1.597   5.500   9.632  0.00  0.00    -0.246 OA
ENDBRANCH  36  37
ENDBRANCH  16  36
ENDBRANCH  14  16
ENDBRANCH  11  12
BRANCH  11  40
ATOM     40  CB  ASP A   7       1.045   7.446  11.801  0.00  0.00    +0.143 C 
BRANCH  40  41
ATOM     41  CG  ASP A   7       2.439   7.886  11.426  0.00  0.00    +0.367 C 
ATOM     42  OD2 ASP A   7       3.366   7.866  12.229  0.00  0.00    -0.246 OA
ATOM     43  OD1 ASP A   7       2.571   8.237  10.269  0.00  0.00    -0.246 OA
ENDBRANCH  40  41
ENDBRANCH  11  40
ENDBRANCH   9  11
ENDBRANCH   5   7
ENDBRANCH   2   5
BRANCH   1  44
ATOM     44  CA  GLY A   5       5.450   4.192  17.019  0.00  0.00    +0.176 C 
BRANCH  44  46
ATOM     45  C   THR A   4       4.406   5.609  18.729  0.00  0.00    +0.243 C 
ATOM     46  N   GLY A   5       4.752   4.382  18.284  0.00  0.00    -0.295 N 
ATOM     47  H   GLY A   5       4.514   3.550  18.860  0.00  0.00    +0.150 HD
ATOM     48  O   THR A   4       4.642   6.620  18.068  0.00  0.00    -0.273 OA
BRANCH  45  49
ATOM     49  CA  THR A   4       3.694   5.636  20.139  0.00  0.00    +0.176 C 
BRANCH  49  51
ATOM     50  C   ASP A   3       2.133   3.774  20.062  0.00  0.00    +0.241 C 
ATOM     51  N   THR A   4       3.208   4.342  20.624  0.00  0.00    -0.295 N 
ATOM     52  H   THR A   4       3.699   3.863  21.406  0.00  0.00    +0.150 HD
ATOM     53  O   ASP A   3       1.556   4.286  19.122  0.00  0.00    -0.273 OA
BRANCH  50  54
ATOM     54  CA  ASP A   3       1.650   2.435  20.599  0.00  0.00    +0.160 C 
BRANCH  54  57
ATOM     55  C   LEU A   2       0.427   2.090  22.609  0.00  0.00    +0.241 C 
ATOM     56  O   LEU A   2       1.475   1.727  23.135  0.00  0.00    -0.273 OA
ATOM     57  N   ASP A   3       0.434   2.610  21.400  0.00  0.00    -0.297 N 
ATOM     58  H   ASP A   3      -0.390   3.124  21.028  0.00  0.00    +0.150 HD
BRANCH  55  59
ATOM     59  CA  LEU A   2      -0.930   1.933  23.296  0.00  0.00    +0.149 C 
BRANCH  59  61
ATOM     60  C   LEU A   1      -1.694  -0.200  22.437  0.00  0.00    +0.238 C 
ATOM     61  N   LEU A   2      -1.207   0.504  23.452  0.00  0.00    -0.297 N 
ATOM     62  H   LEU A   2      -1.021   0.038  24.363  0.00  0.00    +0.150 HD
ATOM     63  O   LEU A   1      -2.038   0.313  21.383  0.00  0.00    -0.274 OA
BRANCH  60  64
ATOM     64  CA  LEU A   1      -1.788  -1.698  22.647  0.00  0.00    +0.145 C 
BRANCH  64  65
ATOM     65  N   LEU A   1      -3.136  -2.069  22.248  0.00  0.00    -0.238 NA
ATOM     66  H   LEU A   1      -3.333  -2.231  21.240  0.00  0.00    +0.142 HD
ENDBRANCH  64  65
BRANCH  64  67
ATOM     67  CB  LEU A   1      -0.817  -2.490  21.739  0.00  0.00    +0.026 C 
BRANCH  67  68
ATOM     68  CG  LEU A   1       0.708  -2.387  21.927  0.00  0.00    +0.002 C 
ATOM     69  CD2 LEU A   1       1.159  -3.183  23.151  0.00  0.00    +0.000 C 
ATOM     70  CD1 LEU A   1       1.450  -2.933  20.665  0.00  0.00    +0.000 C 
ENDBRANCH  67  68
ENDBRANCH  64  67
ENDBRANCH  60  64
ENDBRANCH  59  61
BRANCH  59  71
ATOM     71  CB  LEU A   2      -0.921   2.608  24.682  0.00  0.00    +0.029 C 
BRANCH  71  72
ATOM     72  CG  LEU A   2      -2.220   2.492  25.477  0.00  0.00    +0.002 C 
ATOM     73  CD2 LEU A   2      -2.063   3.291  26.772  0.00  0.00    +0.000 C 
ATOM     74  CD1 LEU A   2      -3.419   3.000  24.691  0.00  0.00    +0.000 C 
ENDBRANCH  71  72
ENDBRANCH  59  71
ENDBRANCH  55  59
ENDBRANCH  54  57
BRANCH  54  75
ATOM     75  CB  ASP A   3       1.294   1.432  19.500  0.00  0.00    +0.143 C 
BRANCH  75  76
ATOM     76  CG  ASP A   3       2.419   1.043  18.564  0.00  0.00    +0.367 C 
ATOM     77  OD2 ASP A   3       3.532   1.534  18.724  0.00  0.00    -0.246 OA
ATOM     78  OD1 ASP A   3       2.150   0.239  17.657  0.00  0.00    -0.246 OA
ENDBRANCH  75  76
ENDBRANCH  54  75
ENDBRANCH  50  54
ENDBRANCH  49  51
BRANCH  49  79
ATOM     79  CB  THR A   4       4.597   6.193  21.235  0.00  0.00    +0.137 C 
ATOM     80  CG2 THR A   4       3.870   6.322  22.600  0.00  0.00    +0.034 C 
BRANCH  79  81
ATOM     81  OG1 THR A   4       5.716   5.323  21.387  0.00  0.00    -0.382 OA
ATOM     82  HG1 THR A   4       6.213   5.274  20.532  0.00  0.00    +0.210 HD
ENDBRANCH  79  81
ENDBRANCH  49  79
ENDBRANCH  45  49
ENDBRANCH  44  46
ENDBRANCH   1  44
TORSDOF 35
REMARK  Name = ../refined-set-2016/1dif/1dif_pocket.pdb
REMARK  228 active torsions:
REMARK  status: ('A' for Active; 'I' for Inactive)
REMARK    1  A    between atoms: _1  and  _3
REMARK    2  A    between atoms: _3  and  _4
REMARK    3  A    between atoms: _3  and  _6
REMARK    4  A    between atoms: _6  and  _7
REMARK    5  A    between atoms: _7  and  _8
REMARK    6  A    between atoms: _8  and  _9
REMARK    7  A    between atoms: _19  and  _20
REMARK    8  A    between atoms: _25  and  _27
REMARK    9  A    between atoms: _27  and  _28
REMARK   10  A    between atoms: _27  and  _30
REMARK   11  A    between atoms: _30  and  _31
REMARK   12  A    between atoms: _34  and  _36
REMARK   13  A    between atoms: _36  and  _37
REMARK   14  A    between atoms: _36  and  _39
REMARK   15  A    between atoms: _39  and  _40
REMARK   16  A    between atoms: _43  and  _45
REMARK   17  A    between atoms: _45  and  _46
REMARK   18  A    between atoms: _45  and  _48
REMARK   19  A    between atoms: _48  and  _49
REMARK   20  A    between atoms: _52  and  _54
REMARK   21  A    between atoms: _54  and  _55
REMARK   22  A    between atoms: _54  and  _57
REMARK   23  A    between atoms: _57  and  _58
REMARK   24  A    between atoms: _61  and  _63
REMARK   25  A    between atoms: _63  and  _64
REMARK   26  A    between atoms: _63  and  _66
REMARK   27  A    between atoms: _66  and  _67
REMARK   28  A    between atoms: _70  and  _72
REMARK   29  A    between atoms: _72  and  _73
REMARK   30  A    between atoms: _75  and  _77
REMARK   31  A    between atoms: _77  and  _78
REMARK   32  A    between atoms: _81  and  _83
REMARK   33  A    between atoms: _83  and  _84
REMARK   34  A    between atoms: _83  and  _86
REMARK   35  A    between atoms: _86  and  _87
REMARK   36  A    between atoms: _90  and  _92
REMARK   37  A    between atoms: _92  and  _93
REMARK   38  A    between atoms: _92  and  _95
REMARK   39  A    between atoms: _95  and  _96
REMARK   40  A    between atoms: _99  and  _101
REMARK   41  A    between atoms: _101  and  _102
REMARK   42  A    between atoms: _101  and  _104
REMARK   43  A    between atoms: _104  and  _105
REMARK   44  A    between atoms: _108  and  _110
REMARK   45  A    between atoms: _110  and  _111
REMARK   46  A    between atoms: _110  and  _113
REMARK   47  A    between atoms: _116  and  _118
REMARK   48  A    between atoms: _118  and  _119
REMARK   49  A    between atoms: _118  and  _121
REMARK   50  A    between atoms: _121  and  _122
REMARK   51  A    between atoms: _122  and  _123
REMARK   52  A    between atoms: _123  and  _124
REMARK   53  A    between atoms: _124  and  _125
REMARK   54  A    between atoms: _129  and  _131
REMARK   55  A    between atoms: _131  and  _132
REMARK   56  A    between atoms: _131  and  _134
REMARK   57  A    between atoms: _134  and  _135
REMARK   58  A    between atoms: _135  and  _136
REMARK   59  A    between atoms: _138  and  _140
REMARK   60  A    between atoms: _140  and  _141
REMARK   61  A    between atoms: _140  and  _143
REMARK   62  A    between atoms: _143  and  _144
REMARK   63  A    between atoms: _147  and  _149
REMARK   64  A    between atoms: _149  and  _150
REMARK   65  A    between atoms: _152  and  _154
REMARK   66  A    between atoms: _154  and  _155
REMARK   67  A    between atoms: _157  and  _159
REMARK   68  A    between atoms: _159  and  _160
REMARK   69  A    between atoms: _159  and  _162
REMARK   70  A    between atoms: _162  and  _163
REMARK   71  A    between atoms: _166  and  _168
REMARK   72  A    between atoms: _168  and  _169
REMARK   73  A    between atoms: _171  and  _173
REMARK   74  A    between atoms: _173  and  _174
REMARK   75  A    between atoms: _176  and  _178
REMARK   76  A    between atoms: _178  and  _179
REMARK   77  A    between atoms: _178  and  _181
REMARK   78  A    between atoms: _181  and  _182
REMARK   79  A    between atoms: _188  and  _190
REMARK   80  A    between atoms: _190  and  _191
REMARK   81  A    between atoms: _190  and  _193
REMARK   82  A    between atoms: _193  and  _194
REMARK   83  A    between atoms: _197  and  _199
REMARK   84  A    between atoms: _199  and  _200
REMARK   85  A    between atoms: _199  and  _202
REMARK   86  A    between atoms: _205  and  _207
REMARK   87  A    between atoms: _207  and  _208
REMARK   88  A    between atoms: _207  and  _210
REMARK   89  A    between atoms: _210  and  _211
REMARK   90  A    between atoms: _215  and  _216
REMARK   91  A    between atoms: _221  and  _223
REMARK   92  A    between atoms: _223  and  _224
REMARK   93  A    between atoms: _223  and  _226
REMARK   94  A    between atoms: _226  and  _227
REMARK   95  A    between atoms: _231  and  _232
REMARK   96  A    between atoms: _237  and  _239
REMARK   97  A    between atoms: _239  and  _240
REMARK   98  A    between atoms: _239  and  _242
REMARK   99  A    between atoms: _245  and  _247
REMARK  100  A    between atoms: _247  and  _248
REMARK  101  A    between atoms: _247  and  _250
REMARK  102  A    between atoms: _250  and  _251
REMARK  103  A    between atoms: _256  and  _258
REMARK  104  A    between atoms: _258  and  _259
REMARK  105  A    between atoms: _258  and  _261
REMARK  106  A    between atoms: _261  and  _262
REMARK  107  A    between atoms: _265  and  _267
REMARK  108  A    between atoms: _267  and  _268
REMARK  109  A    between atoms: _267  and  _270
REMARK  110  A    between atoms: _270  and  _271
REMARK  111  A    between atoms: _274  and  _276
REMARK  112  A    between atoms: _276  and  _277
REMARK  113  A    between atoms: _279  and  _281
REMARK  114  A    between atoms: _281  and  _282
REMARK  115  A    between atoms: _281  and  _284
REMARK  116  A    between atoms: _284  and  _285
REMARK  117  A    between atoms: _285  and  _286
REMARK  118  A    between atoms: _286  and  _287
REMARK  119  A    between atoms: _296  and  _298
REMARK  120  A    between atoms: _298  and  _299
REMARK  121  A    between atoms: _298  and  _301
REMARK  122  A    between atoms: _301  and  _302
REMARK  123  A    between atoms: _302  and  _303
REMARK  124  A    between atoms: _303  and  _304
REMARK  125  A    between atoms: _314  and  _315
REMARK  126  A    between atoms: _320  and  _322
REMARK  127  A    between atoms: _322  and  _323
REMARK  128  A    between atoms: _322  and  _325
REMARK  129  A    between atoms: _325  and  _326
REMARK  130  A    between atoms: _329  and  _331
REMARK  131  A    between atoms: _331  and  _332
REMARK  132  A    between atoms: _331  and  _334
REMARK  133  A    between atoms: _334  and  _335
REMARK  134  A    between atoms: _338  and  _340
REMARK  135  A    between atoms: _340  and  _341
REMARK  136  A    between atoms: _340  and  _343
REMARK  137  A    between atoms: _343  and  _344
REMARK  138  A    between atoms: _347  and  _349
REMARK  139  A    between atoms: _349  and  _350
REMARK  140  A    between atoms: _349  and  _352
REMARK  141  A    between atoms: _352  and  _353
REMARK  142  A    between atoms: _356  and  _358
REMARK  143  A    between atoms: _358  and  _359
REMARK  144  A    between atoms: _358  and  _361
REMARK  145  A    between atoms: _361  and  _362
REMARK  146  A    between atoms: _365  and  _367
REMARK  147  A    between atoms: _367  and  _368
REMARK  148  A    between atoms: _370  and  _372
REMARK  149  A    between atoms: _372  and  _373
REMARK  150  A    between atoms: _376  and  _378
REMARK  151  A    between atoms: _378  and  _379
REMARK  152  A    between atoms: _378  and  _381
REMARK  153  A    between atoms: _381  and  _382
REMARK  154  A    between atoms: _385  and  _387
REMARK  155  A    between atoms: _387  and  _388
REMARK  156  A    between atoms: _387  and  _390
REMARK  157  A    between atoms: _390  and  _391
REMARK  158  A    between atoms: _394  and  _396
REMARK  159  A    between atoms: _396  and  _397
REMARK  160  A    between atoms: _396  and  _399
REMARK  161  A    between atoms: _399  and  _400
REMARK  162  A    between atoms: _403  and  _405
REMARK  163  A    between atoms: _405  and  _406
REMARK  164  A    between atoms: _405  and  _408
REMARK  165  A    between atoms: _411  and  _413
REMARK  166  A    between atoms: _413  and  _414
REMARK  167  A    between atoms: _413  and  _416
REMARK  168  A    between atoms: _416  and  _417
REMARK  169  A    between atoms: _417  and  _418
REMARK  170  A    between atoms: _420  and  _422
REMARK  171  A    between atoms: _422  and  _423
REMARK  172  A    between atoms: _422  and  _425
REMARK  173  A    between atoms: _425  and  _426
REMARK  174  A    between atoms: _429  and  _431
REMARK  175  A    between atoms: _431  and  _432
REMARK  176  A    between atoms: _434  and  _436
REMARK  177  A    between atoms: _436  and  _437
REMARK  178  A    between atoms: _439  and  _441
REMARK  179  A    between atoms: _441  and  _442
REMARK  180  A    between atoms: _441  and  _444
REMARK  181  A    between atoms: _444  and  _445
REMARK  182  A    between atoms: _448  and  _450
REMARK  183  A    between atoms: _450  and  _451
REMARK  184  A    between atoms: _453  and  _455
REMARK  185  A    between atoms: _455  and  _456
REMARK  186  A    between atoms: _458  and  _460
REMARK  187  A    between atoms: _460  and  _461
REMARK  188  A    between atoms: _460  and  _463
REMARK  189  A    between atoms: _463  and  _464
REMARK  190  A    between atoms: _470  and  _472
REMARK  191  A    between atoms: _472  and  _473
REMARK  192  A    between atoms: _472  and  _475
REMARK  193  A    between atoms: _475  and  _476
REMARK  194  A    between atoms: _479  and  _481
REMARK  195  A    between atoms: _481  and  _482
REMARK  196  A    between atoms: _481  and  _484
REMARK  197  A    between atoms: _487  and  _489
REMARK  198  A    between atoms: _489  and  _490
REMARK  199  A    between atoms: _489  and  _492
REMARK  200  A    between atoms: _492  and  _493
REMARK  201  A    between atoms: _496  and  _498
REMARK  202  A    between atoms: _498  and  _499
REMARK  203  A    between atoms: _498  and  _501
REMARK  204  A    between atoms: _501  and  _502
REMARK  205  A    between atoms: _506  and  _507
REMARK  206  A    between atoms: _512  and  _514
REMARK  207  A    between atoms: _514  and  _515
REMARK  208  A    between atoms: _514  and  _517
REMARK  209  A    between atoms: _520  and  _522
REMARK  210  A    between atoms: _522  and  _523
REMARK  211  A    between atoms: _522  and  _525
REMARK  212  A    between atoms: _525  and  _526
REMARK  213  A    between atoms: _531  and  _533
REMARK  214  A    between atoms: _533  and  _534
REMARK  215  A    between atoms: _533  and  _536
REMARK  216  A    between atoms: _536  and  _537
REMARK  217  A    between atoms: _540  and  _542
REMARK  218  A    between atoms: _542  and  _543
REMARK  219  A    between atoms: _542  and  _545
REMARK  220  A    between atoms: _545  and  _546
REMARK  221  A    between atoms: _549  and  _551
REMARK  222  A    between atoms: _551  and  _552
REMARK  223  A    between atoms: _554  and  _556
REMARK  224  A    between atoms: _556  and  _557
REMARK  225  A    between atoms: _556  and  _559
REMARK  226  A    between atoms: _559  and  _560
REMARK  227  A    between atoms: _560  and  _561
REMARK  228  A    between atoms: _561  and  _562
REMARK                            x       y       z     vdW  Elec       q    Type
REMARK                         _______ _______ _______ _____ _____    ______ ____
ROOT
ATOM      1  C   GLY A   5       6.114  -2.592   8.511  0.00  0.00    +0.243 C 
ATOM      2  N   ILE A   6       6.760  -3.164   9.534  0.00  0.00    -0.297 N 
ATOM      3  H   ILE A   6       6.537  -2.869  10.506  0.00  0.00    +0.150 HD
ATOM      4  O   GLY A   5       6.437  -2.762   7.338  0.00  0.00    -0.273 OA
ENDROOT
BRANCH   2   5
ATOM      5  CA  ILE A   6       7.778  -4.201   9.312  0.00  0.00    +0.149 C 
BRANCH   5   6
ATOM      6  C   ILE A   6       7.108  -5.338   8.546  0.00  0.00    +0.241 C 
ATOM      7  O   ILE A   6       5.965  -5.729   8.785  0.00  0.00    -0.273 OA
ATOM      8  N   GLY A   7       7.849  -5.875   7.619  0.00  0.00    -0.295 N 
ATOM      9  H   GLY A   7       8.820  -5.546   7.442  0.00  0.00    +0.150 HD
BRANCH   8  10
ATOM     10  CA  GLY A   7       7.258  -6.956   6.842  0.00  0.00    +0.176 C 
BRANCH  10  11
ATOM     11  C   GLY A   7       6.516  -6.535   5.587  0.00  0.00    +0.243 C 
ATOM     12  N   GLY A   8       5.906  -5.346   5.504  0.00  0.00    -0.295 N 
ATOM     13  H   GLY A   8       6.029  -4.591   6.209  0.00  0.00    +0.150 HD
ATOM     14  O   GLY A   7       6.461  -7.331   4.667  0.00  0.00    -0.273 OA
BRANCH  12  15
ATOM     15  CA  GLY A   8       5.041  -5.211   4.313  0.00  0.00    +0.176 C 
BRANCH  15  16
ATOM     16  C   GLY A   8       3.807  -4.400   4.538  0.00  0.00    +0.243 C 
ATOM     17  O   GLY A   8       3.719  -3.647   5.491  0.00  0.00    -0.273 OA
ATOM     18  N   PHE A   9       2.866  -4.544   3.605  0.00  0.00    -0.297 N 
ATOM     19  H   PHE A   9       3.014  -5.258   2.863  0.00  0.00    +0.150 HD
BRANCH  18  20
ATOM     20  CA  PHE A   9       1.622  -3.742   3.568  0.00  0.00    +0.153 C 
BRANCH  20  21
ATOM     21  C   PHE A   9       0.466  -4.676   3.776  0.00  0.00    +0.241 C 
ATOM     22  N   ILE A  10      -0.557  -4.159   4.440  0.00  0.00    -0.298 N 
ATOM     23  H   ILE A  10      -0.466  -3.236   4.911  0.00  0.00    +0.150 HD
ATOM     24  O   PHE A   9       0.505  -5.811   3.319  0.00  0.00    -0.273 OA
BRANCH  22  25
ATOM     25  CA  ILE A  10      -1.801  -4.891   4.502  0.00  0.00    +0.137 C 
BRANCH  25  26
ATOM     26  C   ILE A  10      -2.886  -3.958   3.970  0.00  0.00    +0.227 C 
ATOM     27  O   ILE A  10      -2.691  -2.754   3.870  0.00  0.00    -0.286 OA
ENDBRANCH  25  26
BRANCH  25  28
ATOM     28  CB  ILE A  10      -2.024  -5.511   5.917  0.00  0.00    +0.026 C 
ATOM     29  CG2 ILE A  10      -0.786  -6.319   6.305  0.00  0.00    +0.002 C 
BRANCH  28  30
ATOM     30  CG1 ILE A  10      -2.343  -4.501   7.012  0.00  0.00    +0.002 C 
ATOM     31  CD1 ILE A  10      -3.014  -5.093   8.254  0.00  0.00    +0.000 C 
ENDBRANCH  28  30
ENDBRANCH  25  28
ENDBRANCH  22  25
ENDBRANCH  20  21
BRANCH  20  32
ATOM     32  CB  PHE A   9       1.376  -3.022   2.206  0.00  0.00    +0.055 C 
BRANCH  32  33
ATOM     33  CG  PHE A   9       2.344  -1.902   1.983  0.00  0.00    -0.020 A 
ATOM     34  CD2 PHE A   9       2.002  -0.604   2.392  0.00  0.00    -0.004 A 
ATOM     35  CE2 PHE A   9       2.929   0.444   2.247  0.00  0.00    -0.000 A 
ATOM     36  CZ  PHE A   9       4.182   0.197   1.692  0.00  0.00    -0.000 A 
ATOM     37  CE1 PHE A   9       4.518  -1.089   1.284  0.00  0.00    -0.000 A 
ATOM     38  CD1 PHE A   9       3.606  -2.131   1.426  0.00  0.00    -0.004 A 
ENDBRANCH  32  33
ENDBRANCH  20  32
ENDBRANCH  18  20
ENDBRANCH  15  16
ENDBRANCH  12  15
ENDBRANCH  10  11
ENDBRANCH   8  10
ENDBRANCH   5   6
BRANCH   5  39
ATOM     39  CB  ILE A   6       8.283  -4.703  10.700  0.00  0.00    +0.027 C 
ATOM     40  CG2 ILE A   6       8.818  -6.118  10.744  0.00  0.00    +0.002 C 
BRANCH  39  41
ATOM     41  CG1 ILE A   6       9.259  -3.746  11.375  0.00  0.00    +0.002 C 
ATOM     42  CD1 ILE A   6      10.577  -3.492  10.639  0.00  0.00    +0.000 C 
ENDBRANCH  39  41
ENDBRANCH   5  39
ENDBRANCH   2   5
BRANCH   1  43
ATOM     43  CA  GLY A   5       4.926  -1.726   8.825  0.00  0.00    +0.176 C 
BRANCH  43  46
ATOM     44  C   GLY A   4       3.294  -0.659   7.398  0.00  0.00    +0.243 C 
ATOM     45  O   GLY A   4       3.014   0.202   8.216  0.00  0.00    -0.273 OA
ATOM     46  N   GLY A   5       4.194  -1.595   7.581  0.00  0.00    -0.295 N 
ATOM     47  H   GLY A   5       4.389  -2.264   6.809  0.00  0.00    +0.150 HD
BRANCH  44  48
ATOM     48  CA  GLY A   4       2.601  -0.738   6.106  0.00  0.00    +0.176 C 
BRANCH  48  50
ATOM     49  C   ILE A   3       0.258  -0.403   5.645  0.00  0.00    +0.241 C 
ATOM     50  N   GLY A   4       1.420   0.095   6.072  0.00  0.00    -0.295 N 
ATOM     51  H   GLY A   4       1.476   1.086   6.382  0.00  0.00    +0.150 HD
ATOM     52  O   ILE A   3       0.069  -1.580   5.343  0.00  0.00    -0.273 OA
BRANCH  49  53
ATOM     53  CA  ILE A   3      -0.877   0.565   5.530  0.00  0.00    +0.149 C 
BRANCH  53  55
ATOM     54  C   MET A   2      -2.400   0.707   3.632  0.00  0.00    +0.241 C 
ATOM     55  N   ILE A   3      -1.807  -0.031   4.559  0.00  0.00    -0.297 N 
ATOM     56  H   ILE A   3      -2.003  -1.052   4.601  0.00  0.00    +0.150 HD
ATOM     57  O   MET A   2      -2.306   1.916   3.577  0.00  0.00    -0.273 OA
BRANCH  54  58
ATOM     58  CA  MET A   2      -3.155   0.035   2.532  0.00  0.00    +0.149 C 
BRANCH  58  61
ATOM     59  C   LYS A   1      -5.482   0.643   2.491  0.00  0.00    +0.238 C 
ATOM     60  O   LYS A   1      -5.811  -0.473   2.865  0.00  0.00    -0.274 OA
ATOM     61  N   MET A   2      -4.237   0.956   2.213  0.00  0.00    -0.297 N 
ATOM     62  H   MET A   2      -4.022   1.868   1.762  0.00  0.00    +0.150 HD
BRANCH  59  63
ATOM     63  CA  LYS A   1      -6.518   1.738   2.328  0.00  0.00    +0.145 C 
BRANCH  63  64
ATOM     64  N   LYS A   1      -7.784   1.053   2.243  0.00  0.00    -0.238 NA
ATOM     65  H   LYS A   1      -7.942   0.223   2.849  0.00  0.00    +0.142 HD
ENDBRANCH  63  64
BRANCH  63  66
ATOM     66  CB  LYS A   1      -6.603   2.701   3.511  0.00  0.00    +0.026 C 
BRANCH  66  67
ATOM     67  CG  LYS A   1      -5.479   3.738   3.618  0.00  0.00    -0.000 C 
BRANCH  67  68
ATOM     68  CD  LYS A   1      -5.333   4.293   5.043  0.00  0.00    -0.024 C 
BRANCH  68  69
ATOM     69  CE  LYS A   1      -4.259   5.389   5.216  0.00  0.00    -0.086 C 
BRANCH  69  70
ATOM     70  NZ  LYS A   1      -2.907   4.911   4.916  0.00  0.00    +0.380 N 
ATOM     71  HZ1 LYS A   1      -2.668   4.127   5.556  0.00  0.00    -0.089 HD
ATOM     72  HZ2 LYS A   1      -2.229   5.688   5.049  0.00  0.00    -0.089 HD
ATOM     73  HZ3 LYS A   1      -2.868   4.580   3.931  0.00  0.00    -0.089 HD
ENDBRANCH  69  70
ENDBRANCH  68  69
ENDBRANCH  67  68
ENDBRANCH  66  67
ENDBRANCH  63  66
ENDBRANCH  59  63
ENDBRANCH  58  61
BRANCH  58  74
ATOM     74  CB  MET A   2      -2.138  -0.092   1.399  0.00  0.00    +0.041 C 
BRANCH  74  75
ATOM     75  CG  MET A   2      -2.758  -0.364   0.050  0.00  0.00    +0.060 C 
BRANCH  75  76
ATOM     76  SD  MET A   2      -3.119  -2.104  -0.102  0.00  0.00    -0.139 S 
ATOM     77  CE  MET A   2      -1.389  -2.635  -0.185  0.00  0.00    +0.069 C 
ENDBRANCH  75  76
ENDBRANCH  74  75
ENDBRANCH  58  74
ENDBRANCH  54  58
ENDBRANCH  53  55
BRANCH  53  78
ATOM     78  CB  ILE A   3      -1.532   0.821   6.926  0.00  0.00    +0.027 C 
ATOM     79  CG2 ILE A   3      -2.248   2.157   7.004  0.00  0.00    +0.002 C 
BRANCH  78  80
ATOM     80  CG1 ILE A   3      -2.484  -0.284   7.371  0.00  0.00    +0.002 C 
ATOM     81  CD1 ILE A   3      -1.711  -1.328   8.109  0.00  0.00    +0.000 C 
ENDBRANCH  78  80
ENDBRANCH  53  78
ENDBRANCH  49  53
ENDBRANCH  48  50
ENDBRANCH  44  48
ENDBRANCH  43  46
ENDBRANCH   1  43
TORSDOF 36
REMARK  Name = ../refined-set-2016/1dif/1dif_pocket.pdb
REMARK  228 active torsions:
REMARK  status: ('A' for Active; 'I' for Inactive)
REMARK    1  A    between atoms: _1  and  _3
REMARK    2  A    between atoms: _3  and  _4
REMARK    3  A    between atoms: _3  and  _6
REMARK    4  A    between atoms: _6  and  _7
REMARK    5  A    between atoms: _7  and  _8
REMARK    6  A    between atoms: _8  and  _9
REMARK    7  A    between atoms: _19  and  _20
REMARK    8  A    between atoms: _25  and  _27
REMARK    9  A    between atoms: _27  and  _28
REMARK   10  A    between atoms: _27  and  _30
REMARK   11  A    between atoms: _30  and  _31
REMARK   12  A    between atoms: _34  and  _36
REMARK   13  A    between atoms: _36  and  _37
REMARK   14  A    between atoms: _36  and  _39
REMARK   15  A    between atoms: _39  and  _40
REMARK   16  A    between atoms: _43  and  _45
REMARK   17  A    between atoms: _45  and  _46
REMARK   18  A    between atoms: _45  and  _48
REMARK   19  A    between atoms: _48  and  _49
REMARK   20  A    between atoms: _52  and  _54
REMARK   21  A    between atoms: _54  and  _55
REMARK   22  A    between atoms: _54  and  _57
REMARK   23  A    between atoms: _57  and  _58
REMARK   24  A    between atoms: _61  and  _63
REMARK   25  A    between atoms: _63  and  _64
REMARK   26  A    between atoms: _63  and  _66
REMARK   27  A    between atoms: _66  and  _67
REMARK   28  A    between atoms: _70  and  _72
REMARK   29  A    between atoms: _72  and  _73
REMARK   30  A    between atoms: _75  and  _77
REMARK   31  A    between atoms: _77  and  _78
REMARK   32  A    between atoms: _81  and  _83
REMARK   33  A    between atoms: _83  and  _84
REMARK   34  A    between atoms: _83  and  _86
REMARK   35  A    between atoms: _86  and  _87
REMARK   36  A    between atoms: _90  and  _92
REMARK   37  A    between atoms: _92  and  _93
REMARK   38  A    between atoms: _92  and  _95
REMARK   39  A    between atoms: _95  and  _96
REMARK   40  A    between atoms: _99  and  _101
REMARK   41  A    between atoms: _101  and  _102
REMARK   42  A    between atoms: _101  and  _104
REMARK   43  A    between atoms: _104  and  _105
REMARK   44  A    between atoms: _108  and  _110
REMARK   45  A    between atoms: _110  and  _111
REMARK   46  A    between atoms: _110  and  _113
REMARK   47  A    between atoms: _116  and  _118
REMARK   48  A    between atoms: _118  and  _119
REMARK   49  A    between atoms: _118  and  _121
REMARK   50  A    between atoms: _121  and  _122
REMARK   51  A    between atoms: _122  and  _123
REMARK   52  A    between atoms: _123  and  _124
REMARK   53  A    between atoms: _124  and  _125
REMARK   54  A    between atoms: _129  and  _131
REMARK   55  A    between atoms: _131  and  _132
REMARK   56  A    between atoms: _131  and  _134
REMARK   57  A    between atoms: _134  and  _135
REMARK   58  A    between atoms: _135  and  _136
REMARK   59  A    between atoms: _138  and  _140
REMARK   60  A    between atoms: _140  and  _141
REMARK   61  A    between atoms: _140  and  _143
REMARK   62  A    between atoms: _143  and  _144
REMARK   63  A    between atoms: _147  and  _149
REMARK   64  A    between atoms: _149  and  _150
REMARK   65  A    between atoms: _152  and  _154
REMARK   66  A    between atoms: _154  and  _155
REMARK   67  A    between atoms: _157  and  _159
REMARK   68  A    between atoms: _159  and  _160
REMARK   69  A    between atoms: _159  and  _162
REMARK   70  A    between atoms: _162  and  _163
REMARK   71  A    between atoms: _166  and  _168
REMARK   72  A    between atoms: _168  and  _169
REMARK   73  A    between atoms: _171  and  _173
REMARK   74  A    between atoms: _173  and  _174
REMARK   75  A    between atoms: _176  and  _178
REMARK   76  A    between atoms: _178  and  _179
REMARK   77  A    between atoms: _178  and  _181
REMARK   78  A    between atoms: _181  and  _182
REMARK   79  A    between atoms: _188  and  _190
REMARK   80  A    between atoms: _190  and  _191
REMARK   81  A    between atoms: _190  and  _193
REMARK   82  A    between atoms: _193  and  _194
REMARK   83  A    between atoms: _197  and  _199
REMARK   84  A    between atoms: _199  and  _200
REMARK   85  A    between atoms: _199  and  _202
REMARK   86  A    between atoms: _205  and  _207
REMARK   87  A    between atoms: _207  and  _208
REMARK   88  A    between atoms: _207  and  _210
REMARK   89  A    between atoms: _210  and  _211
REMARK   90  A    between atoms: _215  and  _216
REMARK   91  A    between atoms: _221  and  _223
REMARK   92  A    between atoms: _223  and  _224
REMARK   93  A    between atoms: _223  and  _226
REMARK   94  A    between atoms: _226  and  _227
REMARK   95  A    between atoms: _231  and  _232
REMARK   96  A    between atoms: _237  and  _239
REMARK   97  A    between atoms: _239  and  _240
REMARK   98  A    between atoms: _239  and  _242
REMARK   99  A    between atoms: _245  and  _247
REMARK  100  A    between atoms: _247  and  _248
REMARK  101  A    between atoms: _247  and  _250
REMARK  102  A    between atoms: _250  and  _251
REMARK  103  A    between atoms: _256  and  _258
REMARK  104  A    between atoms: _258  and  _259
REMARK  105  A    between atoms: _258  and  _261
REMARK  106  A    between atoms: _261  and  _262
REMARK  107  A    between atoms: _265  and  _267
REMARK  108  A    between atoms: _267  and  _268
REMARK  109  A    between atoms: _267  and  _270
REMARK  110  A    between atoms: _270  and  _271
REMARK  111  A    between atoms: _274  and  _276
REMARK  112  A    between atoms: _276  and  _277
REMARK  113  A    between atoms: _279  and  _281
REMARK  114  A    between atoms: _281  and  _282
REMARK  115  A    between atoms: _281  and  _284
REMARK  116  A    between atoms: _284  and  _285
REMARK  117  A    between atoms: _285  and  _286
REMARK  118  A    between atoms: _286  and  _287
REMARK  119  A    between atoms: _296  and  _298
REMARK  120  A    between atoms: _298  and  _299
REMARK  121  A    between atoms: _298  and  _301
REMARK  122  A    between atoms: _301  and  _302
REMARK  123  A    between atoms: _302  and  _303
REMARK  124  A    between atoms: _303  and  _304
REMARK  125  A    between atoms: _314  and  _315
REMARK  126  A    between atoms: _320  and  _322
REMARK  127  A    between atoms: _322  and  _323
REMARK  128  A    between atoms: _322  and  _325
REMARK  129  A    between atoms: _325  and  _326
REMARK  130  A    between atoms: _329  and  _331
REMARK  131  A    between atoms: _331  and  _332
REMARK  132  A    between atoms: _331  and  _334
REMARK  133  A    between atoms: _334  and  _335
REMARK  134  A    between atoms: _338  and  _340
REMARK  135  A    between atoms: _340  and  _341
REMARK  136  A    between atoms: _340  and  _343
REMARK  137  A    between atoms: _343  and  _344
REMARK  138  A    between atoms: _347  and  _349
REMARK  139  A    between atoms: _349  and  _350
REMARK  140  A    between atoms: _349  and  _352
REMARK  141  A    between atoms: _352  and  _353
REMARK  142  A    between atoms: _356  and  _358
REMARK  143  A    between atoms: _358  and  _359
REMARK  144  A    between atoms: _358  and  _361
REMARK  145  A    between atoms: _361  and  _362
REMARK  146  A    between atoms: _365  and  _367
REMARK  147  A    between atoms: _367  and  _368
REMARK  148  A    between atoms: _370  and  _372
REMARK  149  A    between atoms: _372  and  _373
REMARK  150  A    between atoms: _376  and  _378
REMARK  151  A    between atoms: _378  and  _379
REMARK  152  A    between atoms: _378  and  _381
REMARK  153  A    between atoms: _381  and  _382
REMARK  154  A    between atoms: _385  and  _387
REMARK  155  A    between atoms: _387  and  _388
REMARK  156  A    between atoms: _387  and  _390
REMARK  157  A    between atoms: _390  and  _391
REMARK  158  A    between atoms: _394  and  _396
REMARK  159  A    between atoms: _396  and  _397
REMARK  160  A    between atoms: _396  and  _399
REMARK  161  A    between atoms: _399  and  _400
REMARK  162  A    between atoms: _403  and  _405
REMARK  163  A    between atoms: _405  and  _406
REMARK  164  A    between atoms: _405  and  _408
REMARK  165  A    between atoms: _411  and  _413
REMARK  166  A    between atoms: _413  and  _414
REMARK  167  A    between atoms: _413  and  _416
REMARK  168  A    between atoms: _416  and  _417
REMARK  169  A    between atoms: _417  and  _418
REMARK  170  A    between atoms: _420  and  _422
REMARK  171  A    between atoms: _422  and  _423
REMARK  172  A    between atoms: _422  and  _425
REMARK  173  A    between atoms: _425  and  _426
REMARK  174  A    between atoms: _429  and  _431
REMARK  175  A    between atoms: _431  and  _432
REMARK  176  A    between atoms: _434  and  _436
REMARK  177  A    between atoms: _436  and  _437
REMARK  178  A    between atoms: _439  and  _441
REMARK  179  A    between atoms: _441  and  _442
REMARK  180  A    between atoms: _441  and  _444
REMARK  181  A    between atoms: _444  and  _445
REMARK  182  A    between atoms: _448  and  _450
REMARK  183  A    between atoms: _450  and  _451
REMARK  184  A    between atoms: _453  and  _455
REMARK  185  A    between atoms: _455  and  _456
REMARK  186  A    between atoms: _458  and  _460
REMARK  187  A    between atoms: _460  and  _461
REMARK  188  A    between atoms: _460  and  _463
REMARK  189  A    between atoms: _463  and  _464
REMARK  190  A    between atoms: _470  and  _472
REMARK  191  A    between atoms: _472  and  _473
REMARK  192  A    between atoms: _472  and  _475
REMARK  193  A    between atoms: _475  and  _476
REMARK  194  A    between atoms: _479  and  _481
REMARK  195  A    between atoms: _481  and  _482
REMARK  196  A    between atoms: _481  and  _484
REMARK  197  A    between atoms: _487  and  _489
REMARK  198  A    between atoms: _489  and  _490
REMARK  199  A    between atoms: _489  and  _492
REMARK  200  A    between atoms: _492  and  _493
REMARK  201  A    between atoms: _496  and  _498
REMARK  202  A    between atoms: _498  and  _499
REMARK  203  A    between atoms: _498  and  _501
REMARK  204  A    between atoms: _501  and  _502
REMARK  205  A    between atoms: _506  and  _507
REMARK  206  A    between atoms: _512  and  _514
REMARK  207  A    between atoms: _514  and  _515
REMARK  208  A    between atoms: _514  and  _517
REMARK  209  A    between atoms: _520  and  _522
REMARK  210  A    between atoms: _522  and  _523
REMARK  211  A    between atoms: _522  and  _525
REMARK  212  A    between atoms: _525  and  _526
REMARK  213  A    between atoms: _531  and  _533
REMARK  214  A    between atoms: _533  and  _534
REMARK  215  A    between atoms: _533  and  _536
REMARK  216  A    between atoms: _536  and  _537
REMARK  217  A    between atoms: _540  and  _542
REMARK  218  A    between atoms: _542  and  _543
REMARK  219  A    between atoms: _542  and  _545
REMARK  220  A    between atoms: _545  and  _546
REMARK  221  A    between atoms: _549  and  _551
REMARK  222  A    between atoms: _551  and  _552
REMARK  223  A    between atoms: _554  and  _556
REMARK  224  A    between atoms: _556  and  _557
REMARK  225  A    between atoms: _556  and  _559
REMARK  226  A    between atoms: _559  and  _560
REMARK  227  A    between atoms: _560  and  _561
REMARK  228  A    between atoms: _561  and  _562
REMARK                            x       y       z     vdW  Elec       q    Type
REMARK                         _______ _______ _______ _____ _____    ______ ____
ROOT
ATOM      1  CA  VAL A   1      -7.505  -2.298   5.735  0.00  0.00    +0.133 C 
ENDROOT
BRANCH   1   2
ATOM      2  CB  VAL A   1      -6.752  -1.461   6.808  0.00  0.00    +0.023 C 
ATOM      3  CG2 VAL A   1      -5.558  -2.198   7.387  0.00  0.00    +0.002 C 
ATOM      4  CG1 VAL A   1      -6.268  -0.103   6.287  0.00  0.00    +0.002 C 
ENDBRANCH   1   2
BRANCH   1   5
ATOM      5  N   VAL A   1      -6.614  -2.521   4.614  0.00  0.00    -0.239 NA
ATOM      6  H   VAL A   1      -6.352  -1.721   4.003  0.00  0.00    +0.142 HD
ENDBRANCH   1   5
BRANCH   1   7
ATOM      7  C   VAL A   1      -8.743  -1.578   5.193  0.00  0.00    +0.224 C 
ATOM      8  O   VAL A   1      -8.756  -1.033   4.087  0.00  0.00    -0.287 OA
ENDBRANCH   1   7
TORSDOF 3
REMARK  Name = ../refined-set-2016/1dif/1dif_pocket.pdb
REMARK  228 active torsions:
REMARK  status: ('A' for Active; 'I' for Inactive)
REMARK    1  A    between atoms: _1  and  _3
REMARK    2  A    between atoms: _3  and  _4
REMARK    3  A    between atoms: _3  and  _6
REMARK    4  A    between atoms: _6  and  _7
REMARK    5  A    between atoms: _7  and  _8
REMARK    6  A    between atoms: _8  and  _9
REMARK    7  A    between atoms: _19  and  _20
REMARK    8  A    between atoms: _25  and  _27
REMARK    9  A    between atoms: _27  and  _28
REMARK   10  A    between atoms: _27  and  _30
REMARK   11  A    between atoms: _30  and  _31
REMARK   12  A    between atoms: _34  and  _36
REMARK   13  A    between atoms: _36  and  _37
REMARK   14  A    between atoms: _36  and  _39
REMARK   15  A    between atoms: _39  and  _40
REMARK   16  A    between atoms: _43  and  _45
REMARK   17  A    between atoms: _45  and  _46
REMARK   18  A    between atoms: _45  and  _48
REMARK   19  A    between atoms: _48  and  _49
REMARK   20  A    between atoms: _52  and  _54
REMARK   21  A    between atoms: _54  and  _55
REMARK   22  A    between atoms: _54  and  _57
REMARK   23  A    between atoms: _57  and  _58
REMARK   24  A    between atoms: _61  and  _63
REMARK   25  A    between atoms: _63  and  _64
REMARK   26  A    between atoms: _63  and  _66
REMARK   27  A    between atoms: _66  and  _67
REMARK   28  A    between atoms: _70  and  _72
REMARK   29  A    between atoms: _72  and  _73
REMARK   30  A    between atoms: _75  and  _77
REMARK   31  A    between atoms: _77  and  _78
REMARK   32  A    between atoms: _81  and  _83
REMARK   33  A    between atoms: _83  and  _84
REMARK   34  A    between atoms: _83  and  _86
REMARK   35  A    between atoms: _86  and  _87
REMARK   36  A    between atoms: _90  and  _92
REMARK   37  A    between atoms: _92  and  _93
REMARK   38  A    between atoms: _92  and  _95
REMARK   39  A    between atoms: _95  and  _96
REMARK   40  A    between atoms: _99  and  _101
REMARK   41  A    between atoms: _101  and  _102
REMARK   42  A    between atoms: _101  and  _104
REMARK   43  A    between atoms: _104  and  _105
REMARK   44  A    between atoms: _108  and  _110
REMARK   45  A    between atoms: _110  and  _111
REMARK   46  A    between atoms: _110  and  _113
REMARK   47  A    between atoms: _116  and  _118
REMARK   48  A    between atoms: _118  and  _119
REMARK   49  A    between atoms: _118  and  _121
REMARK   50  A    between atoms: _121  and  _122
REMARK   51  A    between atoms: _122  and  _123
REMARK   52  A    between atoms: _123  and  _124
REMARK   53  A    between atoms: _124  and  _125
REMARK   54  A    between atoms: _129  and  _131
REMARK   55  A    between atoms: _131  and  _132
REMARK   56  A    between atoms: _131  and  _134
REMARK   57  A    between atoms: _134  and  _135
REMARK   58  A    between atoms: _135  and  _136
REMARK   59  A    between atoms: _138  and  _140
REMARK   60  A    between atoms: _140  and  _141
REMARK   61  A    between atoms: _140  and  _143
REMARK   62  A    between atoms: _143  and  _144
REMARK   63  A    between atoms: _147  and  _149
REMARK   64  A    between atoms: _149  and  _150
REMARK   65  A    between atoms: _152  and  _154
REMARK   66  A    between atoms: _154  and  _155
REMARK   67  A    between atoms: _157  and  _159
REMARK   68  A    between atoms: _159  and  _160
REMARK   69  A    between atoms: _159  and  _162
REMARK   70  A    between atoms: _162  and  _163
REMARK   71  A    between atoms: _166  and  _168
REMARK   72  A    between atoms: _168  and  _169
REMARK   73  A    between atoms: _171  and  _173
REMARK   74  A    between atoms: _173  and  _174
REMARK   75  A    between atoms: _176  and  _178
REMARK   76  A    between atoms: _178  and  _179
REMARK   77  A    between atoms: _178  and  _181
REMARK   78  A    between atoms: _181  and  _182
REMARK   79  A    between atoms: _188  and  _190
REMARK   80  A    between atoms: _190  and  _191
REMARK   81  A    between atoms: _190  and  _193
REMARK   82  A    between atoms: _193  and  _194
REMARK   83  A    between atoms: _197  and  _199
REMARK   84  A    between atoms: _199  and  _200
REMARK   85  A    between atoms: _199  and  _202
REMARK   86  A    between atoms: _205  and  _207
REMARK   87  A    between atoms: _207  and  _208
REMARK   88  A    between atoms: _207  and  _210
REMARK   89  A    between atoms: _210  and  _211
REMARK   90  A    between atoms: _215  and  _216
REMARK   91  A    between atoms: _221  and  _223
REMARK   92  A    between atoms: _223  and  _224
REMARK   93  A    between atoms: _223  and  _226
REMARK   94  A    between atoms: _226  and  _227
REMARK   95  A    between atoms: _231  and  _232
REMARK   96  A    between atoms: _237  and  _239
REMARK   97  A    between atoms: _239  and  _240
REMARK   98  A    between atoms: _239  and  _242
REMARK   99  A    between atoms: _245  and  _247
REMARK  100  A    between atoms: _247  and  _248
REMARK  101  A    between atoms: _247  and  _250
REMARK  102  A    between atoms: _250  and  _251
REMARK  103  A    between atoms: _256  and  _258
REMARK  104  A    between atoms: _258  and  _259
REMARK  105  A    between atoms: _258  and  _261
REMARK  106  A    between atoms: _261  and  _262
REMARK  107  A    between atoms: _265  and  _267
REMARK  108  A    between atoms: _267  and  _268
REMARK  109  A    between atoms: _267  and  _270
REMARK  110  A    between atoms: _270  and  _271
REMARK  111  A    between atoms: _274  and  _276
REMARK  112  A    between atoms: _276  and  _277
REMARK  113  A    between atoms: _279  and  _281
REMARK  114  A    between atoms: _281  and  _282
REMARK  115  A    between atoms: _281  and  _284
REMARK  116  A    between atoms: _284  and  _285
REMARK  117  A    between atoms: _285  and  _286
REMARK  118  A    between atoms: _286  and  _287
REMARK  119  A    between atoms: _296  and  _298
REMARK  120  A    between atoms: _298  and  _299
REMARK  121  A    between atoms: _298  and  _301
REMARK  122  A    between atoms: _301  and  _302
REMARK  123  A    between atoms: _302  and  _303
REMARK  124  A    between atoms: _303  and  _304
REMARK  125  A    between atoms: _314  and  _315
REMARK  126  A    between atoms: _320  and  _322
REMARK  127  A    between atoms: _322  and  _323
REMARK  128  A    between atoms: _322  and  _325
REMARK  129  A    between atoms: _325  and  _326
REMARK  130  A    between atoms: _329  and  _331
REMARK  131  A    between atoms: _331  and  _332
REMARK  132  A    between atoms: _331  and  _334
REMARK  133  A    between atoms: _334  and  _335
REMARK  134  A    between atoms: _338  and  _340
REMARK  135  A    between atoms: _340  and  _341
REMARK  136  A    between atoms: _340  and  _343
REMARK  137  A    between atoms: _343  and  _344
REMARK  138  A    between atoms: _347  and  _349
REMARK  139  A    between atoms: _349  and  _350
REMARK  140  A    between atoms: _349  and  _352
REMARK  141  A    between atoms: _352  and  _353
REMARK  142  A    between atoms: _356  and  _358
REMARK  143  A    between atoms: _358  and  _359
REMARK  144  A    between atoms: _358  and  _361
REMARK  145  A    between atoms: _361  and  _362
REMARK  146  A    between atoms: _365  and  _367
REMARK  147  A    between atoms: _367  and  _368
REMARK  148  A    between atoms: _370  and  _372
REMARK  149  A    between atoms: _372  and  _373
REMARK  150  A    between atoms: _376  and  _378
REMARK  151  A    between atoms: _378  and  _379
REMARK  152  A    between atoms: _378  and  _381
REMARK  153  A    between atoms: _381  and  _382
REMARK  154  A    between atoms: _385  and  _387
REMARK  155  A    between atoms: _387  and  _388
REMARK  156  A    between atoms: _387  and  _390
REMARK  157  A    between atoms: _390  and  _391
REMARK  158  A    between atoms: _394  and  _396
REMARK  159  A    between atoms: _396  and  _397
REMARK  160  A    between atoms: _396  and  _399
REMARK  161  A    between atoms: _399  and  _400
REMARK  162  A    between atoms: _403  and  _405
REMARK  163  A    between atoms: _405  and  _406
REMARK  164  A    between atoms: _405  and  _408
REMARK  165  A    between atoms: _411  and  _413
REMARK  166  A    between atoms: _413  and  _414
REMARK  167  A    between atoms: _413  and  _416
REMARK  168  A    between atoms: _416  and  _417
REMARK  169  A    between atoms: _417  and  _418
REMARK  170  A    between atoms: _420  and  _422
REMARK  171  A    between atoms: _422  and  _423
REMARK  172  A    between atoms: _422  and  _425
REMARK  173  A    between atoms: _425  and  _426
REMARK  174  A    between atoms: _429  and  _431
REMARK  175  A    between atoms: _431  and  _432
REMARK  176  A    between atoms: _434  and  _436
REMARK  177  A    between atoms: _436  and  _437
REMARK  178  A    between atoms: _439  and  _441
REMARK  179  A    between atoms: _441  and  _442
REMARK  180  A    between atoms: _441  and  _444
REMARK  181  A    between atoms: _444  and  _445
REMARK  182  A    between atoms: _448  and  _450
REMARK  183  A    between atoms: _450  and  _451
REMARK  184  A    between atoms: _453  and  _455
REMARK  185  A    between atoms: _455  and  _456
REMARK  186  A    between atoms: _458  and  _460
REMARK  187  A    between atoms: _460  and  _461
REMARK  188  A    between atoms: _460  and  _463
REMARK  189  A    between atoms: _463  and  _464
REMARK  190  A    between atoms: _470  and  _472
REMARK  191  A    between atoms: _472  and  _473
REMARK  192  A    between atoms: _472  and  _475
REMARK  193  A    between atoms: _475  and  _476
REMARK  194  A    between atoms: _479  and  _481
REMARK  195  A    between atoms: _481  and  _482
REMARK  196  A    between atoms: _481  and  _484
REMARK  197  A    between atoms: _487  and  _489
REMARK  198  A    between atoms: _489  and  _490
REMARK  199  A    between atoms: _489  and  _492
REMARK  200  A    between atoms: _492  and  _493
REMARK  201  A    between atoms: _496  and  _498
REMARK  202  A    between atoms: _498  and  _499
REMARK  203  A    between atoms: _498  and  _501
REMARK  204  A    between atoms: _501  and  _502
REMARK  205  A    between atoms: _506  and  _507
REMARK  206  A    between atoms: _512  and  _514
REMARK  207  A    between atoms: _514  and  _515
REMARK  208  A    between atoms: _514  and  _517
REMARK  209  A    between atoms: _520  and  _522
REMARK  210  A    between atoms: _522  and  _523
REMARK  211  A    between atoms: _522  and  _525
REMARK  212  A    between atoms: _525  and  _526
REMARK  213  A    between atoms: _531  and  _533
REMARK  214  A    between atoms: _533  and  _534
REMARK  215  A    between atoms: _533  and  _536
REMARK  216  A    between atoms: _536  and  _537
REMARK  217  A    between atoms: _540  and  _542
REMARK  218  A    between atoms: _542  and  _543
REMARK  219  A    between atoms: _542  and  _545
REMARK  220  A    between atoms: _545  and  _546
REMARK  221  A    between atoms: _549  and  _551
REMARK  222  A    between atoms: _551  and  _552
REMARK  223  A    between atoms: _554  and  _556
REMARK  224  A    between atoms: _556  and  _557
REMARK  225  A    between atoms: _556  and  _559
REMARK  226  A    between atoms: _559  and  _560
REMARK  227  A    between atoms: _560  and  _561
REMARK  228  A    between atoms: _561  and  _562
REMARK                            x       y       z     vdW  Elec       q    Type
REMARK                         _______ _______ _______ _____ _____    ______ ____
ROOT
ATOM      1  CA  LEU A   1      -8.542   1.171  10.275  0.00  0.00    +0.133 C 
ENDROOT
BRANCH   1   2
ATOM      2  N   LEU A   1      -8.786   2.133  11.357  0.00  0.00    -0.239 NA
ATOM      3  H   LEU A   1      -8.037   2.263  12.066  0.00  0.00    +0.142 HD
ENDBRANCH   1   2
BRANCH   1   4
ATOM      4  C   LEU A   1      -8.858  -0.239  10.842  0.00  0.00    +0.224 C 
ATOM      5  O   LEU A   1      -8.490  -0.539  11.976  0.00  0.00    -0.287 OA
ENDBRANCH   1   4
BRANCH   1   6
ATOM      6  CB  LEU A   1      -7.080   1.277   9.797  0.00  0.00    +0.025 C 
BRANCH   6   7
ATOM      7  CG  LEU A   1      -6.608   2.684   9.443  0.00  0.00    +0.002 C 
ATOM      8  CD2 LEU A   1      -5.151   2.645   9.087  0.00  0.00    +0.000 C 
ATOM      9  CD1 LEU A   1      -7.396   3.302   8.296  0.00  0.00    +0.000 C 
ENDBRANCH   6   7
ENDBRANCH   1   6
TORSDOF 4
REMARK  Name = ../refined-set-2016/1dif/1dif_pocket.pdb
REMARK  228 active torsions:
REMARK  status: ('A' for Active; 'I' for Inactive)
REMARK    1  A    between atoms: _1  and  _3
REMARK    2  A    between atoms: _3  and  _4
REMARK    3  A    between atoms: _3  and  _6
REMARK    4  A    between atoms: _6  and  _7
REMARK    5  A    between atoms: _7  and  _8
REMARK    6  A    between atoms: _8  and  _9
REMARK    7  A    between atoms: _19  and  _20
REMARK    8  A    between atoms: _25  and  _27
REMARK    9  A    between atoms: _27  and  _28
REMARK   10  A    between atoms: _27  and  _30
REMARK   11  A    between atoms: _30  and  _31
REMARK   12  A    between atoms: _34  and  _36
REMARK   13  A    between atoms: _36  and  _37
REMARK   14  A    between atoms: _36  and  _39
REMARK   15  A    between atoms: _39  and  _40
REMARK   16  A    between atoms: _43  and  _45
REMARK   17  A    between atoms: _45  and  _46
REMARK   18  A    between atoms: _45  and  _48
REMARK   19  A    between atoms: _48  and  _49
REMARK   20  A    between atoms: _52  and  _54
REMARK   21  A    between atoms: _54  and  _55
REMARK   22  A    between atoms: _54  and  _57
REMARK   23  A    between atoms: _57  and  _58
REMARK   24  A    between atoms: _61  and  _63
REMARK   25  A    between atoms: _63  and  _64
REMARK   26  A    between atoms: _63  and  _66
REMARK   27  A    between atoms: _66  and  _67
REMARK   28  A    between atoms: _70  and  _72
REMARK   29  A    between atoms: _72  and  _73
REMARK   30  A    between atoms: _75  and  _77
REMARK   31  A    between atoms: _77  and  _78
REMARK   32  A    between atoms: _81  and  _83
REMARK   33  A    between atoms: _83  and  _84
REMARK   34  A    between atoms: _83  and  _86
REMARK   35  A    between atoms: _86  and  _87
REMARK   36  A    between atoms: _90  and  _92
REMARK   37  A    between atoms: _92  and  _93
REMARK   38  A    between atoms: _92  and  _95
REMARK   39  A    between atoms: _95  and  _96
REMARK   40  A    between atoms: _99  and  _101
REMARK   41  A    between atoms: _101  and  _102
REMARK   42  A    between atoms: _101  and  _104
REMARK   43  A    between atoms: _104  and  _105
REMARK   44  A    between atoms: _108  and  _110
REMARK   45  A    between atoms: _110  and  _111
REMARK   46  A    between atoms: _110  and  _113
REMARK   47  A    between atoms: _116  and  _118
REMARK   48  A    between atoms: _118  and  _119
REMARK   49  A    between atoms: _118  and  _121
REMARK   50  A    between atoms: _121  and  _122
REMARK   51  A    between atoms: _122  and  _123
REMARK   52  A    between atoms: _123  and  _124
REMARK   53  A    between atoms: _124  and  _125
REMARK   54  A    between atoms: _129  and  _131
REMARK   55  A    between atoms: _131  and  _132
REMARK   56  A    between atoms: _131  and  _134
REMARK   57  A    between atoms: _134  and  _135
REMARK   58  A    between atoms: _135  and  _136
REMARK   59  A    between atoms: _138  and  _140
REMARK   60  A    between atoms: _140  and  _141
REMARK   61  A    between atoms: _140  and  _143
REMARK   62  A    between atoms: _143  and  _144
REMARK   63  A    between atoms: _147  and  _149
REMARK   64  A    between atoms: _149  and  _150
REMARK   65  A    between atoms: _152  and  _154
REMARK   66  A    between atoms: _154  and  _155
REMARK   67  A    between atoms: _157  and  _159
REMARK   68  A    between atoms: _159  and  _160
REMARK   69  A    between atoms: _159  and  _162
REMARK   70  A    between atoms: _162  and  _163
REMARK   71  A    between atoms: _166  and  _168
REMARK   72  A    between atoms: _168  and  _169
REMARK   73  A    between atoms: _171  and  _173
REMARK   74  A    between atoms: _173  and  _174
REMARK   75  A    between atoms: _176  and  _178
REMARK   76  A    between atoms: _178  and  _179
REMARK   77  A    between atoms: _178  and  _181
REMARK   78  A    between atoms: _181  and  _182
REMARK   79  A    between atoms: _188  and  _190
REMARK   80  A    between atoms: _190  and  _191
REMARK   81  A    between atoms: _190  and  _193
REMARK   82  A    between atoms: _193  and  _194
REMARK   83  A    between atoms: _197  and  _199
REMARK   84  A    between atoms: _199  and  _200
REMARK   85  A    between atoms: _199  and  _202
REMARK   86  A    between atoms: _205  and  _207
REMARK   87  A    between atoms: _207  and  _208
REMARK   88  A    between atoms: _207  and  _210
REMARK   89  A    between atoms: _210  and  _211
REMARK   90  A    between atoms: _215  and  _216
REMARK   91  A    between atoms: _221  and  _223
REMARK   92  A    between atoms: _223  and  _224
REMARK   93  A    between atoms: _223  and  _226
REMARK   94  A    between atoms: _226  and  _227
REMARK   95  A    between atoms: _231  and  _232
REMARK   96  A    between atoms: _237  and  _239
REMARK   97  A    between atoms: _239  and  _240
REMARK   98  A    between atoms: _239  and  _242
REMARK   99  A    between atoms: _245  and  _247
REMARK  100  A    between atoms: _247  and  _248
REMARK  101  A    between atoms: _247  and  _250
REMARK  102  A    between atoms: _250  and  _251
REMARK  103  A    between atoms: _256  and  _258
REMARK  104  A    between atoms: _258  and  _259
REMARK  105  A    between atoms: _258  and  _261
REMARK  106  A    between atoms: _261  and  _262
REMARK  107  A    between atoms: _265  and  _267
REMARK  108  A    between atoms: _267  and  _268
REMARK  109  A    between atoms: _267  and  _270
REMARK  110  A    between atoms: _270  and  _271
REMARK  111  A    between atoms: _274  and  _276
REMARK  112  A    between atoms: _276  and  _277
REMARK  113  A    between atoms: _279  and  _281
REMARK  114  A    between atoms: _281  and  _282
REMARK  115  A    between atoms: _281  and  _284
REMARK  116  A    between atoms: _284  and  _285
REMARK  117  A    between atoms: _285  and  _286
REMARK  118  A    between atoms: _286  and  _287
REMARK  119  A    between atoms: _296  and  _298
REMARK  120  A    between atoms: _298  and  _299
REMARK  121  A    between atoms: _298  and  _301
REMARK  122  A    between atoms: _301  and  _302
REMARK  123  A    between atoms: _302  and  _303
REMARK  124  A    between atoms: _303  and  _304
REMARK  125  A    between atoms: _314  and  _315
REMARK  126  A    between atoms: _320  and  _322
REMARK  127  A    between atoms: _322  and  _323
REMARK  128  A    between atoms: _322  and  _325
REMARK  129  A    between atoms: _325  and  _326
REMARK  130  A    between atoms: _329  and  _331
REMARK  131  A    between atoms: _331  and  _332
REMARK  132  A    between atoms: _331  and  _334
REMARK  133  A    between atoms: _334  and  _335
REMARK  134  A    between atoms: _338  and  _340
REMARK  135  A    between atoms: _340  and  _341
REMARK  136  A    between atoms: _340  and  _343
REMARK  137  A    between atoms: _343  and  _344
REMARK  138  A    between atoms: _347  and  _349
REMARK  139  A    between atoms: _349  and  _350
REMARK  140  A    between atoms: _349  and  _352
REMARK  141  A    between atoms: _352  and  _353
REMARK  142  A    between atoms: _356  and  _358
REMARK  143  A    between atoms: _358  and  _359
REMARK  144  A    between atoms: _358  and  _361
REMARK  145  A    between atoms: _361  and  _362
REMARK  146  A    between atoms: _365  and  _367
REMARK  147  A    between atoms: _367  and  _368
REMARK  148  A    between atoms: _370  and  _372
REMARK  149  A    between atoms: _372  and  _373
REMARK  150  A    between atoms: _376  and  _378
REMARK  151  A    between atoms: _378  and  _379
REMARK  152  A    between atoms: _378  and  _381
REMARK  153  A    between atoms: _381  and  _382
REMARK  154  A    between atoms: _385  and  _387
REMARK  155  A    between atoms: _387  and  _388
REMARK  156  A    between atoms: _387  and  _390
REMARK  157  A    between atoms: _390  and  _391
REMARK  158  A    between atoms: _394  and  _396
REMARK  159  A    between atoms: _396  and  _397
REMARK  160  A    between atoms: _396  and  _399
REMARK  161  A    between atoms: _399  and  _400
REMARK  162  A    between atoms: _403  and  _405
REMARK  163  A    between atoms: _405  and  _406
REMARK  164  A    between atoms: _405  and  _408
REMARK  165  A    between atoms: _411  and  _413
REMARK  166  A    between atoms: _413  and  _414
REMARK  167  A    between atoms: _413  and  _416
REMARK  168  A    between atoms: _416  and  _417
REMARK  169  A    between atoms: _417  and  _418
REMARK  170  A    between atoms: _420  and  _422
REMARK  171  A    between atoms: _422  and  _423
REMARK  172  A    between atoms: _422  and  _425
REMARK  173  A    between atoms: _425  and  _426
REMARK  174  A    between atoms: _429  and  _431
REMARK  175  A    between atoms: _431  and  _432
REMARK  176  A    between atoms: _434  and  _436
REMARK  177  A    between atoms: _436  and  _437
REMARK  178  A    between atoms: _439  and  _441
REMARK  179  A    between atoms: _441  and  _442
REMARK  180  A    between atoms: _441  and  _444
REMARK  181  A    between atoms: _444  and  _445
REMARK  182  A    between atoms: _448  and  _450
REMARK  183  A    between atoms: _450  and  _451
REMARK  184  A    between atoms: _453  and  _455
REMARK  185  A    between atoms: _455  and  _456
REMARK  186  A    between atoms: _458  and  _460
REMARK  187  A    between atoms: _460  and  _461
REMARK  188  A    between atoms: _460  and  _463
REMARK  189  A    between atoms: _463  and  _464
REMARK  190  A    between atoms: _470  and  _472
REMARK  191  A    between atoms: _472  and  _473
REMARK  192  A    between atoms: _472  and  _475
REMARK  193  A    between atoms: _475  and  _476
REMARK  194  A    between atoms: _479  and  _481
REMARK  195  A    between atoms: _481  and  _482
REMARK  196  A    between atoms: _481  and  _484
REMARK  197  A    between atoms: _487  and  _489
REMARK  198  A    between atoms: _489  and  _490
REMARK  199  A    between atoms: _489  and  _492
REMARK  200  A    between atoms: _492  and  _493
REMARK  201  A    between atoms: _496  and  _498
REMARK  202  A    between atoms: _498  and  _499
REMARK  203  A    between atoms: _498  and  _501
REMARK  204  A    between atoms: _501  and  _502
REMARK  205  A    between atoms: _506  and  _507
REMARK  206  A    between atoms: _512  and  _514
REMARK  207  A    between atoms: _514  and  _515
REMARK  208  A    between atoms: _514  and  _517
REMARK  209  A    between atoms: _520  and  _522
REMARK  210  A    between atoms: _522  and  _523
REMARK  211  A    between atoms: _522  and  _525
REMARK  212  A    between atoms: _525  and  _526
REMARK  213  A    between atoms: _531  and  _533
REMARK  214  A    between atoms: _533  and  _534
REMARK  215  A    between atoms: _533  and  _536
REMARK  216  A    between atoms: _536  and  _537
REMARK  217  A    between atoms: _540  and  _542
REMARK  218  A    between atoms: _542  and  _543
REMARK  219  A    between atoms: _542  and  _545
REMARK  220  A    between atoms: _545  and  _546
REMARK  221  A    between atoms: _549  and  _551
REMARK  222  A    between atoms: _551  and  _552
REMARK  223  A    between atoms: _554  and  _556
REMARK  224  A    between atoms: _556  and  _557
REMARK  225  A    between atoms: _556  and  _559
REMARK  226  A    between atoms: _559  and  _560
REMARK  227  A    between atoms: _560  and  _561
REMARK  228  A    between atoms: _561  and  _562
REMARK                            x       y       z     vdW  Elec       q    Type
REMARK                         _______ _______ _______ _____ _____    ______ ____
ROOT
ATOM      1  C   ASN A   5      -4.192  -2.998  18.593  0.00  0.00    +0.241 C 
ATOM      2  O   ASN A   5      -3.641  -3.125  19.681  0.00  0.00    -0.273 OA
ATOM      3  N   ILE A   6      -4.030  -1.933  17.787  0.00  0.00    -0.297 N 
ATOM      4  H   ILE A   6      -4.653  -1.831  16.961  0.00  0.00    +0.150 HD
ENDROOT
BRANCH   3   5
ATOM      5  CA  ILE A   6      -3.010  -0.913  18.029  0.00  0.00    +0.149 C 
BRANCH   5   6
ATOM      6  C   ILE A   6      -3.710   0.395  18.120  0.00  0.00    +0.241 C 
ATOM      7  N   ILE A   7      -3.470   1.138  19.199  0.00  0.00    -0.297 N 
ATOM      8  H   ILE A   7      -2.944   0.728  19.997  0.00  0.00    +0.150 HD
ATOM      9  O   ILE A   6      -4.447   0.725  17.209  0.00  0.00    -0.273 OA
BRANCH   7  10
ATOM     10  CA  ILE A   7      -3.934   2.520  19.278  0.00  0.00    +0.149 C 
BRANCH  10  11
ATOM     11  C   ILE A   7      -2.740   3.436  18.952  0.00  0.00    +0.241 C 
ATOM     12  O   ILE A   7      -1.772   3.485  19.709  0.00  0.00    -0.273 OA
ATOM     13  N   GLY A   8      -2.811   4.146  17.793  0.00  0.00    -0.295 N 
ATOM     14  H   GLY A   8      -3.680   4.105  17.224  0.00  0.00    +0.150 HD
BRANCH  13  15
ATOM     15  CA  GLY A   8      -1.688   4.967  17.330  0.00  0.00    +0.176 C 
BRANCH  15  16
ATOM     16  C   GLY A   8      -1.849   6.420  17.705  0.00  0.00    +0.243 C 
ATOM     17  O   GLY A   8      -2.778   6.828  18.389  0.00  0.00    -0.273 OA
ATOM     18  N   ARG A   9      -0.908   7.220  17.229  0.00  0.00    -0.298 N 
ATOM     19  H   ARG A   9      -0.211   6.846  16.554  0.00  0.00    +0.150 HD
BRANCH  18  20
ATOM     20  CA  ARG A   9      -0.834   8.617  17.636  0.00  0.00    +0.137 C 
BRANCH  20  21
ATOM     21  C   ARG A   9      -2.038   9.469  17.271  0.00  0.00    +0.227 C 
ATOM     22  O   ARG A   9      -2.315  10.417  17.994  0.00  0.00    -0.286 OA
ENDBRANCH  20  21
BRANCH  20  23
ATOM     23  CB  ARG A   9       0.421   9.308  17.116  0.00  0.00    +0.031 C 
BRANCH  23  24
ATOM     24  CG  ARG A   9       1.680   8.663  17.675  0.00  0.00    +0.045 C 
BRANCH  24  25
ATOM     25  CD  ARG A   9       2.924   9.441  17.295  0.00  0.00    +0.174 C 
BRANCH  25  26
ATOM     26  NE  ARG A   9       3.089   9.485  15.851  0.00  0.00    -0.265 N 
ATOM     27  HE  ARG A   9       3.648   8.737  15.394  0.00  0.00    +0.259 HD
ATOM     28  CZ  ARG A   9       2.554  10.446  15.078  0.00  0.00    +0.342 C 
ATOM     29  NH2 ARG A   9       1.976  11.547  15.570  0.00  0.00    -0.292 N 
ATOM     30 HH21 ARG A   9       1.924  11.692  16.599  0.00  0.00    +0.255 HD
ATOM     31 HH22 ARG A   9       1.578  12.258  14.924  0.00  0.00    +0.255 HD
ATOM     32  NH1 ARG A   9       2.594  10.284  13.760  0.00  0.00    -0.292 N 
ATOM     33 HH11 ARG A   9       3.031   9.432  13.354  0.00  0.00    +0.255 HD
ATOM     34 HH12 ARG A   9       2.189  11.009  13.134  0.00  0.00    +0.255 HD
ENDBRANCH  25  26
ENDBRANCH  24  25
ENDBRANCH  23  24
ENDBRANCH  20  23
ENDBRANCH  18  20
ENDBRANCH  15  16
ENDBRANCH  13  15
ENDBRANCH  10  11
BRANCH  10  35
ATOM     35  CB  ILE A   7      -4.527   2.814  20.667  0.00  0.00    +0.027 C 
ATOM     36  CG2 ILE A   7      -5.000   4.274  20.716  0.00  0.00    +0.002 C 
BRANCH  35  37
ATOM     37  CG1 ILE A   7      -5.680   1.867  21.063  0.00  0.00    +0.002 C 
ATOM     38  CD1 ILE A   7      -6.828   1.808  20.059  0.00  0.00    +0.000 C 
ENDBRANCH  35  37
ENDBRANCH  10  35
ENDBRANCH   7  10
ENDBRANCH   5   6
BRANCH   5  39
ATOM     39  CB  ILE A   6      -2.035  -0.891  16.834  0.00  0.00    +0.027 C 
ATOM     40  CG2 ILE A   6      -1.183   0.404  16.713  0.00  0.00    +0.002 C 
BRANCH  39  41
ATOM     41  CG1 ILE A   6      -1.162  -2.155  16.864  0.00  0.00    +0.002 C 
ATOM     42  CD1 ILE A   6      -0.375  -2.360  15.579  0.00  0.00    +0.000 C 
ENDBRANCH  39  41
ENDBRANCH   5  39
ENDBRANCH   3   5
BRANCH   1  43
ATOM     43  CA  ASN A   5      -5.165  -4.069  18.118  0.00  0.00    +0.158 C 
BRANCH  43  45
ATOM     44  C   VAL A   4      -3.614  -5.740  17.354  0.00  0.00    +0.241 C 
ATOM     45  N   ASN A   5      -4.522  -5.399  18.265  0.00  0.00    -0.297 N 
ATOM     46  H   ASN A   5      -4.771  -6.038  19.047  0.00  0.00    +0.150 HD
ATOM     47  O   VAL A   4      -3.334  -5.011  16.411  0.00  0.00    -0.273 OA
BRANCH  44  48
ATOM     48  CA  VAL A   4      -2.893  -7.060  17.579  0.00  0.00    +0.149 C 
BRANCH  48  51
ATOM     49  C   PRO A   3      -2.514  -8.945  16.015  0.00  0.00    +0.241 C 
ATOM     50  O   PRO A   3      -2.931  -9.771  16.815  0.00  0.00    -0.273 OA
ATOM     51  N   VAL A   4      -2.488  -7.620  16.265  0.00  0.00    -0.297 N 
ATOM     52  H   VAL A   4      -2.175  -6.971  15.515  0.00  0.00    +0.150 HD
BRANCH  49  56
ATOM     53  C   THR A   2      -3.492  -8.128  13.294  0.00  0.00    +0.246 C 
ATOM     54  O   THR A   2      -4.458  -8.633  13.841  0.00  0.00    -0.273 OA
ATOM     55  N   PRO A   3      -2.245  -8.517  13.571  0.00  0.00    -0.272 N 
ATOM     56  CA  PRO A   3      -1.971  -9.425  14.670  0.00  0.00    +0.152 C 
ATOM     57  CB  PRO A   3      -0.457  -9.552  14.729  0.00  0.00    +0.031 C 
ATOM     58  CG  PRO A   3       0.076  -8.952  13.434  0.00  0.00    +0.024 C 
ATOM     59  CD  PRO A   3      -1.056  -8.106  12.847  0.00  0.00    +0.094 C 
BRANCH  53  60
ATOM     60  CA  THR A   2      -3.653  -6.975  12.291  0.00  0.00    +0.176 C 
BRANCH  60  62
ATOM     61  C   PRO A   1      -4.557  -8.099  10.349  0.00  0.00    +0.239 C 
ATOM     62  N   THR A   2      -4.748  -7.303  11.407  0.00  0.00    -0.295 N 
ATOM     63  H   THR A   2      -5.695  -6.916  11.595  0.00  0.00    +0.150 HD
ATOM     64  O   PRO A   1      -3.450  -8.499  10.013  0.00  0.00    -0.274 OA
BRANCH  61  66
ATOM     65  N   PRO A   1      -6.498  -7.267   9.005  0.00  0.00    -0.210 NA
ATOM     66  CA  PRO A   1      -5.853  -8.453   9.608  0.00  0.00    +0.149 C 
ATOM     67  CB  PRO A   1      -5.629  -9.373   8.408  0.00  0.00    +0.028 C 
ATOM     68  CG  PRO A   1      -5.529  -8.416   7.210  0.00  0.00    +0.021 C 
ATOM     69  CD  PRO A   1      -6.423  -7.213   7.546  0.00  0.00    +0.089 C 
ENDBRANCH  61  66
ENDBRANCH  60  62
BRANCH  60  70
ATOM     70  CB  THR A   2      -3.899  -5.585  12.936  0.00  0.00    +0.137 C 
ATOM     71  CG2 THR A   2      -5.214  -5.426  13.684  0.00  0.00    +0.034 C 
BRANCH  70  72
ATOM     72  OG1 THR A   2      -2.781  -5.315  13.761  0.00  0.00    -0.382 OA
ATOM     73  HG1 THR A   2      -2.707  -6.017  14.455  0.00  0.00    +0.210 HD
ENDBRANCH  70  72
ENDBRANCH  60  70
ENDBRANCH  53  60
ENDBRANCH  49  56
ENDBRANCH  48  51
BRANCH  48  74
ATOM     74  CB  VAL A   4      -1.618  -6.836  18.450  0.00  0.00    +0.027 C 
ATOM     75  CG2 VAL A   4      -1.861  -6.406  19.909  0.00  0.00    +0.002 C 
ATOM     76  CG1 VAL A   4      -0.641  -5.827  17.829  0.00  0.00    +0.002 C 
ENDBRANCH  48  74
ENDBRANCH  44  48
ENDBRANCH  43  45
BRANCH  43  77
ATOM     77  CB  ASN A   5      -6.432  -3.917  18.978  0.00  0.00    +0.114 C 
BRANCH  77  78
ATOM     78  CG  ASN A   5      -7.507  -4.915  18.633  0.00  0.00    +0.222 C 
ATOM     79  ND2 ASN A   5      -7.978  -5.664  19.627  0.00  0.00    -0.329 N 
ATOM     80 HD21 ASN A   5      -7.626  -5.524  20.595  0.00  0.00    +0.145 HD
ATOM     81 HD22 ASN A   5      -8.698  -6.389  19.435  0.00  0.00    +0.145 HD
ATOM     82  OD1 ASN A   5      -7.895  -5.051  17.492  0.00  0.00    -0.275 OA
ENDBRANCH  77  78
ENDBRANCH  43  77
ENDBRANCH   1  43
TORSDOF 29
REMARK  Name = ../refined-set-2016/1dif/1dif_pocket.pdb
REMARK  228 active torsions:
REMARK  status: ('A' for Active; 'I' for Inactive)
REMARK    1  A    between atoms: _1  and  _3
REMARK    2  A    between atoms: _3  and  _4
REMARK    3  A    between atoms: _3  and  _6
REMARK    4  A    between atoms: _6  and  _7
REMARK    5  A    between atoms: _7  and  _8
REMARK    6  A    between atoms: _8  and  _9
REMARK    7  A    between atoms: _19  and  _20
REMARK    8  A    between atoms: _25  and  _27
REMARK    9  A    between atoms: _27  and  _28
REMARK   10  A    between atoms: _27  and  _30
REMARK   11  A    between atoms: _30  and  _31
REMARK   12  A    between atoms: _34  and  _36
REMARK   13  A    between atoms: _36  and  _37
REMARK   14  A    between atoms: _36  and  _39
REMARK   15  A    between atoms: _39  and  _40
REMARK   16  A    between atoms: _43  and  _45
REMARK   17  A    between atoms: _45  and  _46
REMARK   18  A    between atoms: _45  and  _48
REMARK   19  A    between atoms: _48  and  _49
REMARK   20  A    between atoms: _52  and  _54
REMARK   21  A    between atoms: _54  and  _55
REMARK   22  A    between atoms: _54  and  _57
REMARK   23  A    between atoms: _57  and  _58
REMARK   24  A    between atoms: _61  and  _63
REMARK   25  A    between atoms: _63  and  _64
REMARK   26  A    between atoms: _63  and  _66
REMARK   27  A    between atoms: _66  and  _67
REMARK   28  A    between atoms: _70  and  _72
REMARK   29  A    between atoms: _72  and  _73
REMARK   30  A    between atoms: _75  and  _77
REMARK   31  A    between atoms: _77  and  _78
REMARK   32  A    between atoms: _81  and  _83
REMARK   33  A    between atoms: _83  and  _84
REMARK   34  A    between atoms: _83  and  _86
REMARK   35  A    between atoms: _86  and  _87
REMARK   36  A    between atoms: _90  and  _92
REMARK   37  A    between atoms: _92  and  _93
REMARK   38  A    between atoms: _92  and  _95
REMARK   39  A    between atoms: _95  and  _96
REMARK   40  A    between atoms: _99  and  _101
REMARK   41  A    between atoms: _101  and  _102
REMARK   42  A    between atoms: _101  and  _104
REMARK   43  A    between atoms: _104  and  _105
REMARK   44  A    between atoms: _108  and  _110
REMARK   45  A    between atoms: _110  and  _111
REMARK   46  A    between atoms: _110  and  _113
REMARK   47  A    between atoms: _116  and  _118
REMARK   48  A    between atoms: _118  and  _119
REMARK   49  A    between atoms: _118  and  _121
REMARK   50  A    between atoms: _121  and  _122
REMARK   51  A    between atoms: _122  and  _123
REMARK   52  A    between atoms: _123  and  _124
REMARK   53  A    between atoms: _124  and  _125
REMARK   54  A    between atoms: _129  and  _131
REMARK   55  A    between atoms: _131  and  _132
REMARK   56  A    between atoms: _131  and  _134
REMARK   57  A    between atoms: _134  and  _135
REMARK   58  A    between atoms: _135  and  _136
REMARK   59  A    between atoms: _138  and  _140
REMARK   60  A    between atoms: _140  and  _141
REMARK   61  A    between atoms: _140  and  _143
REMARK   62  A    between atoms: _143  and  _144
REMARK   63  A    between atoms: _147  and  _149
REMARK   64  A    between atoms: _149  and  _150
REMARK   65  A    between atoms: _152  and  _154
REMARK   66  A    between atoms: _154  and  _155
REMARK   67  A    between atoms: _157  and  _159
REMARK   68  A    between atoms: _159  and  _160
REMARK   69  A    between atoms: _159  and  _162
REMARK   70  A    between atoms: _162  and  _163
REMARK   71  A    between atoms: _166  and  _168
REMARK   72  A    between atoms: _168  and  _169
REMARK   73  A    between atoms: _171  and  _173
REMARK   74  A    between atoms: _173  and  _174
REMARK   75  A    between atoms: _176  and  _178
REMARK   76  A    between atoms: _178  and  _179
REMARK   77  A    between atoms: _178  and  _181
REMARK   78  A    between atoms: _181  and  _182
REMARK   79  A    between atoms: _188  and  _190
REMARK   80  A    between atoms: _190  and  _191
REMARK   81  A    between atoms: _190  and  _193
REMARK   82  A    between atoms: _193  and  _194
REMARK   83  A    between atoms: _197  and  _199
REMARK   84  A    between atoms: _199  and  _200
REMARK   85  A    between atoms: _199  and  _202
REMARK   86  A    between atoms: _205  and  _207
REMARK   87  A    between atoms: _207  and  _208
REMARK   88  A    between atoms: _207  and  _210
REMARK   89  A    between atoms: _210  and  _211
REMARK   90  A    between atoms: _215  and  _216
REMARK   91  A    between atoms: _221  and  _223
REMARK   92  A    between atoms: _223  and  _224
REMARK   93  A    between atoms: _223  and  _226
REMARK   94  A    between atoms: _226  and  _227
REMARK   95  A    between atoms: _231  and  _232
REMARK   96  A    between atoms: _237  and  _239
REMARK   97  A    between atoms: _239  and  _240
REMARK   98  A    between atoms: _239  and  _242
REMARK   99  A    between atoms: _245  and  _247
REMARK  100  A    between atoms: _247  and  _248
REMARK  101  A    between atoms: _247  and  _250
REMARK  102  A    between atoms: _250  and  _251
REMARK  103  A    between atoms: _256  and  _258
REMARK  104  A    between atoms: _258  and  _259
REMARK  105  A    between atoms: _258  and  _261
REMARK  106  A    between atoms: _261  and  _262
REMARK  107  A    between atoms: _265  and  _267
REMARK  108  A    between atoms: _267  and  _268
REMARK  109  A    between atoms: _267  and  _270
REMARK  110  A    between atoms: _270  and  _271
REMARK  111  A    between atoms: _274  and  _276
REMARK  112  A    between atoms: _276  and  _277
REMARK  113  A    between atoms: _279  and  _281
REMARK  114  A    between atoms: _281  and  _282
REMARK  115  A    between atoms: _281  and  _284
REMARK  116  A    between atoms: _284  and  _285
REMARK  117  A    between atoms: _285  and  _286
REMARK  118  A    between atoms: _286  and  _287
REMARK  119  A    between atoms: _296  and  _298
REMARK  120  A    between atoms: _298  and  _299
REMARK  121  A    between atoms: _298  and  _301
REMARK  122  A    between atoms: _301  and  _302
REMARK  123  A    between atoms: _302  and  _303
REMARK  124  A    between atoms: _303  and  _304
REMARK  125  A    between atoms: _314  and  _315
REMARK  126  A    between atoms: _320  and  _322
REMARK  127  A    between atoms: _322  and  _323
REMARK  128  A    between atoms: _322  and  _325
REMARK  129  A    between atoms: _325  and  _326
REMARK  130  A    between atoms: _329  and  _331
REMARK  131  A    between atoms: _331  and  _332
REMARK  132  A    between atoms: _331  and  _334
REMARK  133  A    between atoms: _334  and  _335
REMARK  134  A    between atoms: _338  and  _340
REMARK  135  A    between atoms: _340  and  _341
REMARK  136  A    between atoms: _340  and  _343
REMARK  137  A    between atoms: _343  and  _344
REMARK  138  A    between atoms: _347  and  _349
REMARK  139  A    between atoms: _349  and  _350
REMARK  140  A    between atoms: _349  and  _352
REMARK  141  A    between atoms: _352  and  _353
REMARK  142  A    between atoms: _356  and  _358
REMARK  143  A    between atoms: _358  and  _359
REMARK  144  A    between atoms: _358  and  _361
REMARK  145  A    between atoms: _361  and  _362
REMARK  146  A    between atoms: _365  and  _367
REMARK  147  A    between atoms: _367  and  _368
REMARK  148  A    between atoms: _370  and  _372
REMARK  149  A    between atoms: _372  and  _373
REMARK  150  A    between atoms: _376  and  _378
REMARK  151  A    between atoms: _378  and  _379
REMARK  152  A    between atoms: _378  and  _381
REMARK  153  A    between atoms: _381  and  _382
REMARK  154  A    between atoms: _385  and  _387
REMARK  155  A    between atoms: _387  and  _388
REMARK  156  A    between atoms: _387  and  _390
REMARK  157  A    between atoms: _390  and  _391
REMARK  158  A    between atoms: _394  and  _396
REMARK  159  A    between atoms: _396  and  _397
REMARK  160  A    between atoms: _396  and  _399
REMARK  161  A    between atoms: _399  and  _400
REMARK  162  A    between atoms: _403  and  _405
REMARK  163  A    between atoms: _405  and  _406
REMARK  164  A    between atoms: _405  and  _408
REMARK  165  A    between atoms: _411  and  _413
REMARK  166  A    between atoms: _413  and  _414
REMARK  167  A    between atoms: _413  and  _416
REMARK  168  A    between atoms: _416  and  _417
REMARK  169  A    between atoms: _417  and  _418
REMARK  170  A    between atoms: _420  and  _422
REMARK  171  A    between atoms: _422  and  _423
REMARK  172  A    between atoms: _422  and  _425
REMARK  173  A    between atoms: _425  and  _426
REMARK  174  A    between atoms: _429  and  _431
REMARK  175  A    between atoms: _431  and  _432
REMARK  176  A    between atoms: _434  and  _436
REMARK  177  A    between atoms: _436  and  _437
REMARK  178  A    between atoms: _439  and  _441
REMARK  179  A    between atoms: _441  and  _442
REMARK  180  A    between atoms: _441  and  _444
REMARK  181  A    between atoms: _444  and  _445
REMARK  182  A    between atoms: _448  and  _450
REMARK  183  A    between atoms: _450  and  _451
REMARK  184  A    between atoms: _453  and  _455
REMARK  185  A    between atoms: _455  and  _456
REMARK  186  A    between atoms: _458  and  _460
REMARK  187  A    between atoms: _460  and  _461
REMARK  188  A    between atoms: _460  and  _463
REMARK  189  A    between atoms: _463  and  _464
REMARK  190  A    between atoms: _470  and  _472
REMARK  191  A    between atoms: _472  and  _473
REMARK  192  A    between atoms: _472  and  _475
REMARK  193  A    between atoms: _475  and  _476
REMARK  194  A    between atoms: _479  and  _481
REMARK  195  A    between atoms: _481  and  _482
REMARK  196  A    between atoms: _481  and  _484
REMARK  197  A    between atoms: _487  and  _489
REMARK  198  A    between atoms: _489  and  _490
REMARK  199  A    between atoms: _489  and  _492
REMARK  200  A    between atoms: _492  and  _493
REMARK  201  A    between atoms: _496  and  _498
REMARK  202  A    between atoms: _498  and  _499
REMARK  203  A    between atoms: _498  and  _501
REMARK  204  A    between atoms: _501  and  _502
REMARK  205  A    between atoms: _506  and  _507
REMARK  206  A    between atoms: _512  and  _514
REMARK  207  A    between atoms: _514  and  _515
REMARK  208  A    between atoms: _514  and  _517
REMARK  209  A    between atoms: _520  and  _522
REMARK  210  A    between atoms: _522  and  _523
REMARK  211  A    between atoms: _522  and  _525
REMARK  212  A    between atoms: _525  and  _526
REMARK  213  A    between atoms: _531  and  _533
REMARK  214  A    between atoms: _533  and  _534
REMARK  215  A    between atoms: _533  and  _536
REMARK  216  A    between atoms: _536  and  _537
REMARK  217  A    between atoms: _540  and  _542
REMARK  218  A    between atoms: _542  and  _543
REMARK  219  A    between atoms: _542  and  _545
REMARK  220  A    between atoms: _545  and  _546
REMARK  221  A    between atoms: _549  and  _551
REMARK  222  A    between atoms: _551  and  _552
REMARK  223  A    between atoms: _554  and  _556
REMARK  224  A    between atoms: _556  and  _557
REMARK  225  A    between atoms: _556  and  _559
REMARK  226  A    between atoms: _559  and  _560
REMARK  227  A    between atoms: _560  and  _561
REMARK  228  A    between atoms: _561  and  _562
REMARK                            x       y       z     vdW  Elec       q    Type
REMARK                         _______ _______ _______ _____ _____    ______ ____
ROOT
ATOM      1  C   ARG A   1       7.603  11.209  16.636  0.00  0.00    +0.241 C 
ATOM      2  N   PRO A   2       7.679  10.379  17.692  0.00  0.00    -0.272 N 
ATOM      3  CA  PRO A   2       8.688  10.567  18.729  0.00  0.00    +0.152 C 
ATOM      4  CB  PRO A   2       8.146   9.684  19.874  0.00  0.00    +0.031 C 
ATOM      5  CG  PRO A   2       7.313   8.607  19.206  0.00  0.00    +0.024 C 
ATOM      6  CD  PRO A   2       6.712   9.325  18.004  0.00  0.00    +0.094 C 
ATOM      7  O   ARG A   1       8.357  12.146  16.448  0.00  0.00    -0.273 OA
ENDROOT
BRANCH   3   8
ATOM      8  C   PRO A   2      10.088  10.178  18.311  0.00  0.00    +0.241 C 
ATOM      9  O   PRO A   2      10.645   9.211  18.795  0.00  0.00    -0.273 OA
ATOM     10  N   LEU A   3      10.657  10.954  17.412  0.00  0.00    -0.298 N 
ATOM     11  H   LEU A   3      10.117  11.739  16.994  0.00  0.00    +0.150 HD
BRANCH  10  12
ATOM     12  CA  LEU A   3      12.040  10.724  16.995  0.00  0.00    +0.137 C 
BRANCH  12  13
ATOM     13  C   LEU A   3      13.003  11.524  17.837  0.00  0.00    +0.227 C 
ATOM     14  O   LEU A   3      12.817  12.726  17.973  0.00  0.00    -0.286 OA
ENDBRANCH  12  13
BRANCH  12  15
ATOM     15  CB  LEU A   3      12.261  11.186  15.566  0.00  0.00    +0.028 C 
BRANCH  15  16
ATOM     16  CG  LEU A   3      11.447  10.376  14.573  0.00  0.00    +0.002 C 
ATOM     17  CD2 LEU A   3      11.952   8.946  14.364  0.00  0.00    +0.000 C 
ATOM     18  CD1 LEU A   3      11.386  11.190  13.286  0.00  0.00    +0.000 C 
ENDBRANCH  15  16
ENDBRANCH  12  15
ENDBRANCH  10  12
ENDBRANCH   3   8
BRANCH   1  19
ATOM     19  CA  ARG A   1       6.520  10.985  15.588  0.00  0.00    +0.145 C 
BRANCH  19  20
ATOM     20  N   ARG A   1       5.981  12.295  15.191  0.00  0.00    -0.238 NA
ATOM     21  H   ARG A   1       6.088  12.647  14.218  0.00  0.00    +0.142 HD
ENDBRANCH  19  20
BRANCH  19  22
ATOM     22  CB  ARG A   1       7.149  10.241  14.398  0.00  0.00    +0.030 C 
BRANCH  22  23
ATOM     23  CG  ARG A   1       6.121   9.902  13.321  0.00  0.00    +0.045 C 
BRANCH  23  24
ATOM     24  CD  ARG A   1       6.749   9.392  12.023  0.00  0.00    +0.174 C 
BRANCH  24  25
ATOM     25  NE  ARG A   1       5.680   9.174  11.055  0.00  0.00    -0.265 N 
ATOM     26  HE  ARG A   1       4.719   8.987  11.406  0.00  0.00    +0.259 HD
ATOM     27  CZ  ARG A   1       5.883   9.205   9.756  0.00  0.00    +0.342 C 
ATOM     28  NH2 ARG A   1       7.099   9.355   9.265  0.00  0.00    -0.292 N 
ATOM     29 HH21 ARG A   1       7.911   9.450   9.908  0.00  0.00    +0.255 HD
ATOM     30 HH22 ARG A   1       7.245   9.378   8.236  0.00  0.00    +0.255 HD
ATOM     31  NH1 ARG A   1       4.856   9.096   8.934  0.00  0.00    -0.292 N 
ATOM     32 HH11 ARG A   1       3.894   8.987   9.315  0.00  0.00    +0.255 HD
ATOM     33 HH12 ARG A   1       5.008   9.120   7.905  0.00  0.00    +0.255 HD
ENDBRANCH  24  25
ENDBRANCH  23  24
ENDBRANCH  22  23
ENDBRANCH  19  22
ENDBRANCH   1  19
TORSDOF 11
REMARK  Name = ../refined-set-2016/1dif/1dif_pocket.pdb
REMARK  228 active torsions:
REMARK  status: ('A' for Active; 'I' for Inactive)
REMARK    1  A    between atoms: _1  and  _3
REMARK    2  A    between atoms: _3  and  _4
REMARK    3  A    between atoms: _3  and  _6
REMARK    4  A    between atoms: _6  and  _7
REMARK    5  A    between atoms: _7  and  _8
REMARK    6  A    between atoms: _8  and  _9
REMARK    7  A    between atoms: _19  and  _20
REMARK    8  A    between atoms: _25  and  _27
REMARK    9  A    between atoms: _27  and  _28
REMARK   10  A    between atoms: _27  and  _30
REMARK   11  A    between atoms: _30  and  _31
REMARK   12  A    between atoms: _34  and  _36
REMARK   13  A    between atoms: _36  and  _37
REMARK   14  A    between atoms: _36  and  _39
REMARK   15  A    between atoms: _39  and  _40
REMARK   16  A    between atoms: _43  and  _45
REMARK   17  A    between atoms: _45  and  _46
REMARK   18  A    between atoms: _45  and  _48
REMARK   19  A    between atoms: _48  and  _49
REMARK   20  A    between atoms: _52  and  _54
REMARK   21  A    between atoms: _54  and  _55
REMARK   22  A    between atoms: _54  and  _57
REMARK   23  A    between atoms: _57  and  _58
REMARK   24  A    between atoms: _61  and  _63
REMARK   25  A    between atoms: _63  and  _64
REMARK   26  A    between atoms: _63  and  _66
REMARK   27  A    between atoms: _66  and  _67
REMARK   28  A    between atoms: _70  and  _72
REMARK   29  A    between atoms: _72  and  _73
REMARK   30  A    between atoms: _75  and  _77
REMARK   31  A    between atoms: _77  and  _78
REMARK   32  A    between atoms: _81  and  _83
REMARK   33  A    between atoms: _83  and  _84
REMARK   34  A    between atoms: _83  and  _86
REMARK   35  A    between atoms: _86  and  _87
REMARK   36  A    between atoms: _90  and  _92
REMARK   37  A    between atoms: _92  and  _93
REMARK   38  A    between atoms: _92  and  _95
REMARK   39  A    between atoms: _95  and  _96
REMARK   40  A    between atoms: _99  and  _101
REMARK   41  A    between atoms: _101  and  _102
REMARK   42  A    between atoms: _101  and  _104
REMARK   43  A    between atoms: _104  and  _105
REMARK   44  A    between atoms: _108  and  _110
REMARK   45  A    between atoms: _110  and  _111
REMARK   46  A    between atoms: _110  and  _113
REMARK   47  A    between atoms: _116  and  _118
REMARK   48  A    between atoms: _118  and  _119
REMARK   49  A    between atoms: _118  and  _121
REMARK   50  A    between atoms: _121  and  _122
REMARK   51  A    between atoms: _122  and  _123
REMARK   52  A    between atoms: _123  and  _124
REMARK   53  A    between atoms: _124  and  _125
REMARK   54  A    between atoms: _129  and  _131
REMARK   55  A    between atoms: _131  and  _132
REMARK   56  A    between atoms: _131  and  _134
REMARK   57  A    between atoms: _134  and  _135
REMARK   58  A    between atoms: _135  and  _136
REMARK   59  A    between atoms: _138  and  _140
REMARK   60  A    between atoms: _140  and  _141
REMARK   61  A    between atoms: _140  and  _143
REMARK   62  A    between atoms: _143  and  _144
REMARK   63  A    between atoms: _147  and  _149
REMARK   64  A    between atoms: _149  and  _150
REMARK   65  A    between atoms: _152  and  _154
REMARK   66  A    between atoms: _154  and  _155
REMARK   67  A    between atoms: _157  and  _159
REMARK   68  A    between atoms: _159  and  _160
REMARK   69  A    between atoms: _159  and  _162
REMARK   70  A    between atoms: _162  and  _163
REMARK   71  A    between atoms: _166  and  _168
REMARK   72  A    between atoms: _168  and  _169
REMARK   73  A    between atoms: _171  and  _173
REMARK   74  A    between atoms: _173  and  _174
REMARK   75  A    between atoms: _176  and  _178
REMARK   76  A    between atoms: _178  and  _179
REMARK   77  A    between atoms: _178  and  _181
REMARK   78  A    between atoms: _181  and  _182
REMARK   79  A    between atoms: _188  and  _190
REMARK   80  A    between atoms: _190  and  _191
REMARK   81  A    between atoms: _190  and  _193
REMARK   82  A    between atoms: _193  and  _194
REMARK   83  A    between atoms: _197  and  _199
REMARK   84  A    between atoms: _199  and  _200
REMARK   85  A    between atoms: _199  and  _202
REMARK   86  A    between atoms: _205  and  _207
REMARK   87  A    between atoms: _207  and  _208
REMARK   88  A    between atoms: _207  and  _210
REMARK   89  A    between atoms: _210  and  _211
REMARK   90  A    between atoms: _215  and  _216
REMARK   91  A    between atoms: _221  and  _223
REMARK   92  A    between atoms: _223  and  _224
REMARK   93  A    between atoms: _223  and  _226
REMARK   94  A    between atoms: _226  and  _227
REMARK   95  A    between atoms: _231  and  _232
REMARK   96  A    between atoms: _237  and  _239
REMARK   97  A    between atoms: _239  and  _240
REMARK   98  A    between atoms: _239  and  _242
REMARK   99  A    between atoms: _245  and  _247
REMARK  100  A    between atoms: _247  and  _248
REMARK  101  A    between atoms: _247  and  _250
REMARK  102  A    between atoms: _250  and  _251
REMARK  103  A    between atoms: _256  and  _258
REMARK  104  A    between atoms: _258  and  _259
REMARK  105  A    between atoms: _258  and  _261
REMARK  106  A    between atoms: _261  and  _262
REMARK  107  A    between atoms: _265  and  _267
REMARK  108  A    between atoms: _267  and  _268
REMARK  109  A    between atoms: _267  and  _270
REMARK  110  A    between atoms: _270  and  _271
REMARK  111  A    between atoms: _274  and  _276
REMARK  112  A    between atoms: _276  and  _277
REMARK  113  A    between atoms: _279  and  _281
REMARK  114  A    between atoms: _281  and  _282
REMARK  115  A    between atoms: _281  and  _284
REMARK  116  A    between atoms: _284  and  _285
REMARK  117  A    between atoms: _285  and  _286
REMARK  118  A    between atoms: _286  and  _287
REMARK  119  A    between atoms: _296  and  _298
REMARK  120  A    between atoms: _298  and  _299
REMARK  121  A    between atoms: _298  and  _301
REMARK  122  A    between atoms: _301  and  _302
REMARK  123  A    between atoms: _302  and  _303
REMARK  124  A    between atoms: _303  and  _304
REMARK  125  A    between atoms: _314  and  _315
REMARK  126  A    between atoms: _320  and  _322
REMARK  127  A    between atoms: _322  and  _323
REMARK  128  A    between atoms: _322  and  _325
REMARK  129  A    between atoms: _325  and  _326
REMARK  130  A    between atoms: _329  and  _331
REMARK  131  A    between atoms: _331  and  _332
REMARK  132  A    between atoms: _331  and  _334
REMARK  133  A    between atoms: _334  and  _335
REMARK  134  A    between atoms: _338  and  _340
REMARK  135  A    between atoms: _340  and  _341
REMARK  136  A    between atoms: _340  and  _343
REMARK  137  A    between atoms: _343  and  _344
REMARK  138  A    between atoms: _347  and  _349
REMARK  139  A    between atoms: _349  and  _350
REMARK  140  A    between atoms: _349  and  _352
REMARK  141  A    between atoms: _352  and  _353
REMARK  142  A    between atoms: _356  and  _358
REMARK  143  A    between atoms: _358  and  _359
REMARK  144  A    between atoms: _358  and  _361
REMARK  145  A    between atoms: _361  and  _362
REMARK  146  A    between atoms: _365  and  _367
REMARK  147  A    between atoms: _367  and  _368
REMARK  148  A    between atoms: _370  and  _372
REMARK  149  A    between atoms: _372  and  _373
REMARK  150  A    between atoms: _376  and  _378
REMARK  151  A    between atoms: _378  and  _379
REMARK  152  A    between atoms: _378  and  _381
REMARK  153  A    between atoms: _381  and  _382
REMARK  154  A    between atoms: _385  and  _387
REMARK  155  A    between atoms: _387  and  _388
REMARK  156  A    between atoms: _387  and  _390
REMARK  157  A    between atoms: _390  and  _391
REMARK  158  A    between atoms: _394  and  _396
REMARK  159  A    between atoms: _396  and  _397
REMARK  160  A    between atoms: _396  and  _399
REMARK  161  A    between atoms: _399  and  _400
REMARK  162  A    between atoms: _403  and  _405
REMARK  163  A    between atoms: _405  and  _406
REMARK  164  A    between atoms: _405  and  _408
REMARK  165  A    between atoms: _411  and  _413
REMARK  166  A    between atoms: _413  and  _414
REMARK  167  A    between atoms: _413  and  _416
REMARK  168  A    between atoms: _416  and  _417
REMARK  169  A    between atoms: _417  and  _418
REMARK  170  A    between atoms: _420  and  _422
REMARK  171  A    between atoms: _422  and  _423
REMARK  172  A    between atoms: _422  and  _425
REMARK  173  A    between atoms: _425  and  _426
REMARK  174  A    between atoms: _429  and  _431
REMARK  175  A    between atoms: _431  and  _432
REMARK  176  A    between atoms: _434  and  _436
REMARK  177  A    between atoms: _436  and  _437
REMARK  178  A    between atoms: _439  and  _441
REMARK  179  A    between atoms: _441  and  _442
REMARK  180  A    between atoms: _441  and  _444
REMARK  181  A    between atoms: _444  and  _445
REMARK  182  A    between atoms: _448  and  _450
REMARK  183  A    between atoms: _450  and  _451
REMARK  184  A    between atoms: _453  and  _455
REMARK  185  A    between atoms: _455  and  _456
REMARK  186  A    between atoms: _458  and  _460
REMARK  187  A    between atoms: _460  and  _461
REMARK  188  A    between atoms: _460  and  _463
REMARK  189  A    between atoms: _463  and  _464
REMARK  190  A    between atoms: _470  and  _472
REMARK  191  A    between atoms: _472  and  _473
REMARK  192  A    between atoms: _472  and  _475
REMARK  193  A    between atoms: _475  and  _476
REMARK  194  A    between atoms: _479  and  _481
REMARK  195  A    between atoms: _481  and  _482
REMARK  196  A    between atoms: _481  and  _484
REMARK  197  A    between atoms: _487  and  _489
REMARK  198  A    between atoms: _489  and  _490
REMARK  199  A    between atoms: _489  and  _492
REMARK  200  A    between atoms: _492  and  _493
REMARK  201  A    between atoms: _496  and  _498
REMARK  202  A    between atoms: _498  and  _499
REMARK  203  A    between atoms: _498  and  _501
REMARK  204  A    between atoms: _501  and  _502
REMARK  205  A    between atoms: _506  and  _507
REMARK  206  A    between atoms: _512  and  _514
REMARK  207  A    between atoms: _514  and  _515
REMARK  208  A    between atoms: _514  and  _517
REMARK  209  A    between atoms: _520  and  _522
REMARK  210  A    between atoms: _522  and  _523
REMARK  211  A    between atoms: _522  and  _525
REMARK  212  A    between atoms: _525  and  _526
REMARK  213  A    between atoms: _531  and  _533
REMARK  214  A    between atoms: _533  and  _534
REMARK  215  A    between atoms: _533  and  _536
REMARK  216  A    between atoms: _536  and  _537
REMARK  217  A    between atoms: _540  and  _542
REMARK  218  A    between atoms: _542  and  _543
REMARK  219  A    between atoms: _542  and  _545
REMARK  220  A    between atoms: _545  and  _546
REMARK  221  A    between atoms: _549  and  _551
REMARK  222  A    between atoms: _551  and  _552
REMARK  223  A    between atoms: _554  and  _556
REMARK  224  A    between atoms: _556  and  _557
REMARK  225  A    between atoms: _556  and  _559
REMARK  226  A    between atoms: _559  and  _560
REMARK  227  A    between atoms: _560  and  _561
REMARK  228  A    between atoms: _561  and  _562
REMARK                            x       y       z     vdW  Elec       q    Type
REMARK                         _______ _______ _______ _____ _____    ______ ____
ROOT
ATOM      1  C   GLY A   5       5.491  -2.003  20.462  0.00  0.00    +0.243 C 
ATOM      2  N   ALA A   6       6.804  -1.718  20.501  0.00  0.00    -0.297 N 
ATOM      3  H   ALA A   6       7.114  -0.796  20.870  0.00  0.00    +0.150 HD
ATOM      4  O   GLY A   5       5.083  -3.076  20.070  0.00  0.00    -0.273 OA
ENDROOT
BRANCH   2   5
ATOM      5  CA  ALA A   6       7.806  -2.677  20.036  0.00  0.00    +0.149 C 
ATOM      6  CB  ALA A   6       8.944  -1.911  19.361  0.00  0.00    +0.031 C 
BRANCH   5   7
ATOM      7  C   ALA A   6       8.369  -3.438  21.258  0.00  0.00    +0.241 C 
ATOM      8  O   ALA A   6       8.823  -2.777  22.184  0.00  0.00    -0.273 OA
ATOM      9  N   ASP A   7       8.426  -4.786  21.268  0.00  0.00    -0.297 N 
ATOM     10  H   ASP A   7       7.991  -5.348  20.509  0.00  0.00    +0.150 HD
BRANCH   9  11
ATOM     11  CA  ASP A   7       9.138  -5.448  22.411  0.00  0.00    +0.160 C 
BRANCH  11  12
ATOM     12  C   ASP A   7      10.644  -5.250  22.416  0.00  0.00    +0.241 C 
ATOM     13  O   ASP A   7      11.294  -5.267  23.451  0.00  0.00    -0.273 OA
ATOM     14  N   ASP A   8      11.198  -5.123  21.215  0.00  0.00    -0.297 N 
ATOM     15  H   ASP A   8      10.546  -4.951  20.423  0.00  0.00    +0.150 HD
BRANCH  14  16
ATOM     16  CA  ASP A   8      12.624  -5.197  20.878  0.00  0.00    +0.160 C 
BRANCH  16  17
ATOM     17  C   ASP A   8      13.057  -3.864  20.292  0.00  0.00    +0.241 C 
ATOM     18  N   THR A   9      14.368  -3.672  20.245  0.00  0.00    -0.295 N 
ATOM     19  H   THR A   9      14.982  -4.375  20.704  0.00  0.00    +0.150 HD
ATOM     20  O   ASP A   8      12.214  -3.090  19.834  0.00  0.00    -0.273 OA
BRANCH  18  21
ATOM     21  CA  THR A   9      15.000  -2.536  19.589  0.00  0.00    +0.176 C 
BRANCH  21  22
ATOM     22  C   THR A   9      15.580  -3.008  18.228  0.00  0.00    +0.243 C 
ATOM     23  O   THR A   9      16.251  -4.036  18.172  0.00  0.00    -0.273 OA
ATOM     24  N   VAL A  10      15.296  -2.252  17.150  0.00  0.00    -0.298 N 
ATOM     25  H   VAL A  10      14.823  -1.336  17.286  0.00  0.00    +0.150 HD
BRANCH  24  26
ATOM     26  CA  VAL A  10      15.637  -2.687  15.781  0.00  0.00    +0.137 C 
BRANCH  26  27
ATOM     27  CB  VAL A  10      14.414  -3.110  14.946  0.00  0.00    +0.026 C 
ATOM     28  CG2 VAL A  10      13.556  -4.102  15.703  0.00  0.00    +0.002 C 
ATOM     29  CG1 VAL A  10      14.825  -3.710  13.581  0.00  0.00    +0.002 C 
ENDBRANCH  26  27
BRANCH  26  30
ATOM     30  C   VAL A  10      16.308  -1.532  15.126  0.00  0.00    +0.227 C 
ATOM     31  O   VAL A  10      15.728  -0.452  15.020  0.00  0.00    -0.286 OA
ENDBRANCH  26  30
ENDBRANCH  24  26
ENDBRANCH  21  22
BRANCH  21  32
ATOM     32  CB  THR A   9      16.055  -2.006  20.548  0.00  0.00    +0.137 C 
ATOM     33  CG2 THR A   9      16.949  -0.962  19.946  0.00  0.00    +0.034 C 
BRANCH  32  34
ATOM     34  OG1 THR A   9      15.364  -1.384  21.615  0.00  0.00    -0.382 OA
ATOM     35  HG1 THR A   9      14.784  -2.049  22.063  0.00  0.00    +0.210 HD
ENDBRANCH  32  34
ENDBRANCH  21  32
ENDBRANCH  18  21
ENDBRANCH  16  17
BRANCH  16  36
ATOM     36  CB  ASP A   8      12.829  -6.238  19.720  0.00  0.00    +0.143 C 
BRANCH  36  37
ATOM     37  CG  ASP A   8      12.479  -7.688  20.085  0.00  0.00    +0.367 C 
ATOM     38  OD2 ASP A   8      13.195  -8.269  20.897  0.00  0.00    -0.246 OA
ATOM     39  OD1 ASP A   8      11.498  -8.240  19.565  0.00  0.00    -0.246 OA
ENDBRANCH  36  37
ENDBRANCH  16  36
ENDBRANCH  14  16
ENDBRANCH  11  12
BRANCH  11  40
ATOM     40  CB  ASP A   7       8.958  -6.978  22.503  0.00  0.00    +0.143 C 
BRANCH  40  41
ATOM     41  CG  ASP A   7       7.569  -7.489  22.771  0.00  0.00    +0.367 C 
ATOM     42  OD2 ASP A   7       6.697  -6.712  23.164  0.00  0.00    -0.246 OA
ATOM     43  OD1 ASP A   7       7.359  -8.685  22.616  0.00  0.00    -0.246 OA
ENDBRANCH  40  41
ENDBRANCH  11  40
ENDBRANCH   9  11
ENDBRANCH   5   7
ENDBRANCH   2   5
BRANCH   1  44
ATOM     44  CA  GLY A   5       4.464  -0.939  20.857  0.00  0.00    +0.176 C 
BRANCH  44  47
ATOM     45  C   THR A   4       5.334   0.338  22.690  0.00  0.00    +0.243 C 
ATOM     46  O   THR A   4       4.986  -0.529  23.469  0.00  0.00    -0.273 OA
ATOM     47  N   GLY A   5       5.088   0.257  21.378  0.00  0.00    -0.295 N 
ATOM     48  H   GLY A   5       5.341   1.041  20.743  0.00  0.00    +0.150 HD
BRANCH  45  49
ATOM     49  CA  THR A   4       6.014   1.596  23.188  0.00  0.00    +0.176 C 
BRANCH  49  51
ATOM     50  C   ASP A   3       7.647   2.120  21.502  0.00  0.00    +0.241 C 
ATOM     51  N   THR A   4       6.558   2.482  22.149  0.00  0.00    -0.295 N 
ATOM     52  H   THR A   4       6.089   3.383  21.927  0.00  0.00    +0.150 HD
ATOM     53  O   ASP A   3       8.188   1.057  21.751  0.00  0.00    -0.273 OA
BRANCH  50  54
ATOM     54  CA  ASP A   3       8.121   3.017  20.376  0.00  0.00    +0.160 C 
BRANCH  54  56
ATOM     55  C   LEU A   2       9.226   5.161  20.687  0.00  0.00    +0.241 C 
ATOM     56  N   ASP A   3       9.239   3.820  20.814  0.00  0.00    -0.297 N 
ATOM     57  H   ASP A   3      10.068   3.355  21.235  0.00  0.00    +0.150 HD
ATOM     58  O   LEU A   2       8.212   5.808  20.423  0.00  0.00    -0.273 OA
BRANCH  55  59
ATOM     59  CA  LEU A   2      10.604   5.832  20.837  0.00  0.00    +0.149 C 
BRANCH  59  61
ATOM     60  C   LEU A   1      11.497   5.724  18.566  0.00  0.00    +0.238 C 
ATOM     61  N   LEU A   2      10.956   6.441  19.554  0.00  0.00    -0.297 N 
ATOM     62  H   LEU A   2      10.781   7.456  19.408  0.00  0.00    +0.150 HD
ATOM     63  O   LEU A   1      11.840   4.550  18.695  0.00  0.00    -0.274 OA
BRANCH  60  64
ATOM     64  CA  LEU A   1      11.629   6.419  17.206  0.00  0.00    +0.145 C 
BRANCH  64  65
ATOM     65  N   LEU A   1      12.998   6.276  16.766  0.00  0.00    -0.238 NA
ATOM     66  H   LEU A   1      13.242   5.410  16.244  0.00  0.00    +0.142 HD
ENDBRANCH  64  65
BRANCH  64  67
ATOM     67  CB  LEU A   1      10.794   5.643  16.160  0.00  0.00    +0.026 C 
BRANCH  67  68
ATOM     68  CG  LEU A   1       9.272   5.731  16.291  0.00  0.00    +0.002 C 
ATOM     69  CD2 LEU A   1       8.733   7.097  15.882  0.00  0.00    +0.000 C 
ATOM     70  CD1 LEU A   1       8.672   4.608  15.434  0.00  0.00    +0.000 C 
ENDBRANCH  67  68
ENDBRANCH  64  67
ENDBRANCH  60  64
ENDBRANCH  59  61
BRANCH  59  71
ATOM     71  CB  LEU A   2      10.564   6.879  21.971  0.00  0.00    +0.029 C 
BRANCH  71  72
ATOM     72  CG  LEU A   2      11.828   7.747  22.075  0.00  0.00    +0.002 C 
ATOM     73  CD2 LEU A   2      11.580   8.859  23.077  0.00  0.00    +0.000 C 
ATOM     74  CD1 LEU A   2      13.099   6.956  22.388  0.00  0.00    +0.000 C 
ENDBRANCH  71  72
ENDBRANCH  59  71
ENDBRANCH  55  59
ENDBRANCH  54  56
BRANCH  54  75
ATOM     75  CB  ASP A   3       8.620   2.207  19.191  0.00  0.00    +0.143 C 
BRANCH  75  76
ATOM     76  CG  ASP A   3       7.537   1.418  18.518  0.00  0.00    +0.367 C 
ATOM     77  OD2 ASP A   3       6.430   1.342  19.052  0.00  0.00    -0.246 OA
ATOM     78  OD1 ASP A   3       7.799   0.899  17.425  0.00  0.00    -0.246 OA
ENDBRANCH  75  76
ENDBRANCH  54  75
ENDBRANCH  50  54
ENDBRANCH  49  51
BRANCH  49  79
ATOM     79  CB  THR A   4       5.026   2.388  24.035  0.00  0.00    +0.137 C 
ATOM     80  CG2 THR A   4       5.703   3.603  24.650  0.00  0.00    +0.034 C 
BRANCH  79  81
ATOM     81  OG1 THR A   4       3.927   2.854  23.244  0.00  0.00    -0.382 OA
ATOM     82  HG1 THR A   4       3.455   2.079  22.848  0.00  0.00    +0.210 HD
ENDBRANCH  79  81
ENDBRANCH  49  79
ENDBRANCH  45  49
ENDBRANCH  44  47
ENDBRANCH   1  44
TORSDOF 35
REMARK  Name = ../refined-set-2016/1dif/1dif_pocket.pdb
REMARK  228 active torsions:
REMARK  status: ('A' for Active; 'I' for Inactive)
REMARK    1  A    between atoms: _1  and  _3
REMARK    2  A    between atoms: _3  and  _4
REMARK    3  A    between atoms: _3  and  _6
REMARK    4  A    between atoms: _6  and  _7
REMARK    5  A    between atoms: _7  and  _8
REMARK    6  A    between atoms: _8  and  _9
REMARK    7  A    between atoms: _19  and  _20
REMARK    8  A    between atoms: _25  and  _27
REMARK    9  A    between atoms: _27  and  _28
REMARK   10  A    between atoms: _27  and  _30
REMARK   11  A    between atoms: _30  and  _31
REMARK   12  A    between atoms: _34  and  _36
REMARK   13  A    between atoms: _36  and  _37
REMARK   14  A    between atoms: _36  and  _39
REMARK   15  A    between atoms: _39  and  _40
REMARK   16  A    between atoms: _43  and  _45
REMARK   17  A    between atoms: _45  and  _46
REMARK   18  A    between atoms: _45  and  _48
REMARK   19  A    between atoms: _48  and  _49
REMARK   20  A    between atoms: _52  and  _54
REMARK   21  A    between atoms: _54  and  _55
REMARK   22  A    between atoms: _54  and  _57
REMARK   23  A    between atoms: _57  and  _58
REMARK   24  A    between atoms: _61  and  _63
REMARK   25  A    between atoms: _63  and  _64
REMARK   26  A    between atoms: _63  and  _66
REMARK   27  A    between atoms: _66  and  _67
REMARK   28  A    between atoms: _70  and  _72
REMARK   29  A    between atoms: _72  and  _73
REMARK   30  A    between atoms: _75  and  _77
REMARK   31  A    between atoms: _77  and  _78
REMARK   32  A    between atoms: _81  and  _83
REMARK   33  A    between atoms: _83  and  _84
REMARK   34  A    between atoms: _83  and  _86
REMARK   35  A    between atoms: _86  and  _87
REMARK   36  A    between atoms: _90  and  _92
REMARK   37  A    between atoms: _92  and  _93
REMARK   38  A    between atoms: _92  and  _95
REMARK   39  A    between atoms: _95  and  _96
REMARK   40  A    between atoms: _99  and  _101
REMARK   41  A    between atoms: _101  and  _102
REMARK   42  A    between atoms: _101  and  _104
REMARK   43  A    between atoms: _104  and  _105
REMARK   44  A    between atoms: _108  and  _110
REMARK   45  A    between atoms: _110  and  _111
REMARK   46  A    between atoms: _110  and  _113
REMARK   47  A    between atoms: _116  and  _118
REMARK   48  A    between atoms: _118  and  _119
REMARK   49  A    between atoms: _118  and  _121
REMARK   50  A    between atoms: _121  and  _122
REMARK   51  A    between atoms: _122  and  _123
REMARK   52  A    between atoms: _123  and  _124
REMARK   53  A    between atoms: _124  and  _125
REMARK   54  A    between atoms: _129  and  _131
REMARK   55  A    between atoms: _131  and  _132
REMARK   56  A    between atoms: _131  and  _134
REMARK   57  A    between atoms: _134  and  _135
REMARK   58  A    between atoms: _135  and  _136
REMARK   59  A    between atoms: _138  and  _140
REMARK   60  A    between atoms: _140  and  _141
REMARK   61  A    between atoms: _140  and  _143
REMARK   62  A    between atoms: _143  and  _144
REMARK   63  A    between atoms: _147  and  _149
REMARK   64  A    between atoms: _149  and  _150
REMARK   65  A    between atoms: _152  and  _154
REMARK   66  A    between atoms: _154  and  _155
REMARK   67  A    between atoms: _157  and  _159
REMARK   68  A    between atoms: _159  and  _160
REMARK   69  A    between atoms: _159  and  _162
REMARK   70  A    between atoms: _162  and  _163
REMARK   71  A    between atoms: _166  and  _168
REMARK   72  A    between atoms: _168  and  _169
REMARK   73  A    between atoms: _171  and  _173
REMARK   74  A    between atoms: _173  and  _174
REMARK   75  A    between atoms: _176  and  _178
REMARK   76  A    between atoms: _178  and  _179
REMARK   77  A    between atoms: _178  and  _181
REMARK   78  A    between atoms: _181  and  _182
REMARK   79  A    between atoms: _188  and  _190
REMARK   80  A    between atoms: _190  and  _191
REMARK   81  A    between atoms: _190  and  _193
REMARK   82  A    between atoms: _193  and  _194
REMARK   83  A    between atoms: _197  and  _199
REMARK   84  A    between atoms: _199  and  _200
REMARK   85  A    between atoms: _199  and  _202
REMARK   86  A    between atoms: _205  and  _207
REMARK   87  A    between atoms: _207  and  _208
REMARK   88  A    between atoms: _207  and  _210
REMARK   89  A    between atoms: _210  and  _211
REMARK   90  A    between atoms: _215  and  _216
REMARK   91  A    between atoms: _221  and  _223
REMARK   92  A    between atoms: _223  and  _224
REMARK   93  A    between atoms: _223  and  _226
REMARK   94  A    between atoms: _226  and  _227
REMARK   95  A    between atoms: _231  and  _232
REMARK   96  A    between atoms: _237  and  _239
REMARK   97  A    between atoms: _239  and  _240
REMARK   98  A    between atoms: _239  and  _242
REMARK   99  A    between atoms: _245  and  _247
REMARK  100  A    between atoms: _247  and  _248
REMARK  101  A    between atoms: _247  and  _250
REMARK  102  A    between atoms: _250  and  _251
REMARK  103  A    between atoms: _256  and  _258
REMARK  104  A    between atoms: _258  and  _259
REMARK  105  A    between atoms: _258  and  _261
REMARK  106  A    between atoms: _261  and  _262
REMARK  107  A    between atoms: _265  and  _267
REMARK  108  A    between atoms: _267  and  _268
REMARK  109  A    between atoms: _267  and  _270
REMARK  110  A    between atoms: _270  and  _271
REMARK  111  A    between atoms: _274  and  _276
REMARK  112  A    between atoms: _276  and  _277
REMARK  113  A    between atoms: _279  and  _281
REMARK  114  A    between atoms: _281  and  _282
REMARK  115  A    between atoms: _281  and  _284
REMARK  116  A    between atoms: _284  and  _285
REMARK  117  A    between atoms: _285  and  _286
REMARK  118  A    between atoms: _286  and  _287
REMARK  119  A    between atoms: _296  and  _298
REMARK  120  A    between atoms: _298  and  _299
REMARK  121  A    between atoms: _298  and  _301
REMARK  122  A    between atoms: _301  and  _302
REMARK  123  A    between atoms: _302  and  _303
REMARK  124  A    between atoms: _303  and  _304
REMARK  125  A    between atoms: _314  and  _315
REMARK  126  A    between atoms: _320  and  _322
REMARK  127  A    between atoms: _322  and  _323
REMARK  128  A    between atoms: _322  and  _325
REMARK  129  A    between atoms: _325  and  _326
REMARK  130  A    between atoms: _329  and  _331
REMARK  131  A    between atoms: _331  and  _332
REMARK  132  A    between atoms: _331  and  _334
REMARK  133  A    between atoms: _334  and  _335
REMARK  134  A    between atoms: _338  and  _340
REMARK  135  A    between atoms: _340  and  _341
REMARK  136  A    between atoms: _340  and  _343
REMARK  137  A    between atoms: _343  and  _344
REMARK  138  A    between atoms: _347  and  _349
REMARK  139  A    between atoms: _349  and  _350
REMARK  140  A    between atoms: _349  and  _352
REMARK  141  A    between atoms: _352  and  _353
REMARK  142  A    between atoms: _356  and  _358
REMARK  143  A    between atoms: _358  and  _359
REMARK  144  A    between atoms: _358  and  _361
REMARK  145  A    between atoms: _361  and  _362
REMARK  146  A    between atoms: _365  and  _367
REMARK  147  A    between atoms: _367  and  _368
REMARK  148  A    between atoms: _370  and  _372
REMARK  149  A    between atoms: _372  and  _373
REMARK  150  A    between atoms: _376  and  _378
REMARK  151  A    between atoms: _378  and  _379
REMARK  152  A    between atoms: _378  and  _381
REMARK  153  A    between atoms: _381  and  _382
REMARK  154  A    between atoms: _385  and  _387
REMARK  155  A    between atoms: _387  and  _388
REMARK  156  A    between atoms: _387  and  _390
REMARK  157  A    between atoms: _390  and  _391
REMARK  158  A    between atoms: _394  and  _396
REMARK  159  A    between atoms: _396  and  _397
REMARK  160  A    between atoms: _396  and  _399
REMARK  161  A    between atoms: _399  and  _400
REMARK  162  A    between atoms: _403  and  _405
REMARK  163  A    between atoms: _405  and  _406
REMARK  164  A    between atoms: _405  and  _408
REMARK  165  A    between atoms: _411  and  _413
REMARK  166  A    between atoms: _413  and  _414
REMARK  167  A    between atoms: _413  and  _416
REMARK  168  A    between atoms: _416  and  _417
REMARK  169  A    between atoms: _417  and  _418
REMARK  170  A    between atoms: _420  and  _422
REMARK  171  A    between atoms: _422  and  _423
REMARK  172  A    between atoms: _422  and  _425
REMARK  173  A    between atoms: _425  and  _426
REMARK  174  A    between atoms: _429  and  _431
REMARK  175  A    between atoms: _431  and  _432
REMARK  176  A    between atoms: _434  and  _436
REMARK  177  A    between atoms: _436  and  _437
REMARK  178  A    between atoms: _439  and  _441
REMARK  179  A    between atoms: _441  and  _442
REMARK  180  A    between atoms: _441  and  _444
REMARK  181  A    between atoms: _444  and  _445
REMARK  182  A    between atoms: _448  and  _450
REMARK  183  A    between atoms: _450  and  _451
REMARK  184  A    between atoms: _453  and  _455
REMARK  185  A    between atoms: _455  and  _456
REMARK  186  A    between atoms: _458  and  _460
REMARK  187  A    between atoms: _460  and  _461
REMARK  188  A    between atoms: _460  and  _463
REMARK  189  A    between atoms: _463  and  _464
REMARK  190  A    between atoms: _470  and  _472
REMARK  191  A    between atoms: _472  and  _473
REMARK  192  A    between atoms: _472  and  _475
REMARK  193  A    between atoms: _475  and  _476
REMARK  194  A    between atoms: _479  and  _481
REMARK  195  A    between atoms: _481  and  _482
REMARK  196  A    between atoms: _481  and  _484
REMARK  197  A    between atoms: _487  and  _489
REMARK  198  A    between atoms: _489  and  _490
REMARK  199  A    between atoms: _489  and  _492
REMARK  200  A    between atoms: _492  and  _493
REMARK  201  A    between atoms: _496  and  _498
REMARK  202  A    between atoms: _498  and  _499
REMARK  203  A    between atoms: _498  and  _501
REMARK  204  A    between atoms: _501  and  _502
REMARK  205  A    between atoms: _506  and  _507
REMARK  206  A    between atoms: _512  and  _514
REMARK  207  A    between atoms: _514  and  _515
REMARK  208  A    between atoms: _514  and  _517
REMARK  209  A    between atoms: _520  and  _522
REMARK  210  A    between atoms: _522  and  _523
REMARK  211  A    between atoms: _522  and  _525
REMARK  212  A    between atoms: _525  and  _526
REMARK  213  A    between atoms: _531  and  _533
REMARK  214  A    between atoms: _533  and  _534
REMARK  215  A    between atoms: _533  and  _536
REMARK  216  A    between atoms: _536  and  _537
REMARK  217  A    between atoms: _540  and  _542
REMARK  218  A    between atoms: _542  and  _543
REMARK  219  A    between atoms: _542  and  _545
REMARK  220  A    between atoms: _545  and  _546
REMARK  221  A    between atoms: _549  and  _551
REMARK  222  A    between atoms: _551  and  _552
REMARK  223  A    between atoms: _554  and  _556
REMARK  224  A    between atoms: _556  and  _557
REMARK  225  A    between atoms: _556  and  _559
REMARK  226  A    between atoms: _559  and  _560
REMARK  227  A    between atoms: _560  and  _561
REMARK  228  A    between atoms: _561  and  _562
REMARK                            x       y       z     vdW  Elec       q    Type
REMARK                         _______ _______ _______ _____ _____    ______ ____
ROOT
ATOM      1  CA  ILE A   5       2.253  -5.588  10.641  0.00  0.00    +0.149 C 
ENDROOT
BRANCH   1   3
ATOM      2  C   GLY A   4       4.085  -6.797  11.638  0.00  0.00    +0.243 C 
ATOM      3  N   ILE A   5       3.549  -5.647  11.297  0.00  0.00    -0.297 N 
ATOM      4  H   ILE A   5       4.060  -4.764  11.500  0.00  0.00    +0.150 HD
ATOM      5  O   GLY A   4       3.602  -7.862  11.293  0.00  0.00    -0.273 OA
BRANCH   2   6
ATOM      6  CA  GLY A   4       5.315  -6.745  12.487  0.00  0.00    +0.176 C 
BRANCH   6   9
ATOM      7  C   GLY A   3       6.810  -8.480  13.148  0.00  0.00    +0.243 C 
ATOM      8  O   GLY A   3       7.149  -7.861  14.142  0.00  0.00    -0.273 OA
ATOM      9  N   GLY A   4       5.925  -8.029  12.320  0.00  0.00    -0.295 N 
ATOM     10  H   GLY A   4       5.648  -8.617  11.508  0.00  0.00    +0.150 HD
BRANCH   7  11
ATOM     11  CA  GLY A   3       7.348  -9.829  12.813  0.00  0.00    +0.176 C 
BRANCH  11  13
ATOM     12  C   ILE A   2       9.722 -10.218  12.936  0.00  0.00    +0.241 C 
ATOM     13  N   GLY A   3       8.548 -10.122  13.553  0.00  0.00    -0.295 N 
ATOM     14  H   GLY A   3       8.496 -10.260  14.582  0.00  0.00    +0.150 HD
ATOM     15  O   ILE A   2       9.857 -10.053  11.733  0.00  0.00    -0.273 OA
BRANCH  12  16
ATOM     16  CA  ILE A   2      10.945 -10.565  13.803  0.00  0.00    +0.148 C 
BRANCH  16  19
ATOM     17  C   MET A   1      12.258 -12.605  13.443  0.00  0.00    +0.238 C 
ATOM     18  O   MET A   1      11.795 -13.092  14.473  0.00  0.00    -0.274 OA
ATOM     19  N   ILE A   2      11.932 -11.368  13.037  0.00  0.00    -0.297 N 
ATOM     20  H   ILE A   2      12.372 -10.970  12.183  0.00  0.00    +0.150 HD
BRANCH  17  21
ATOM     21  CA  MET A   1      13.221 -13.458  12.563  0.00  0.00    +0.146 C 
BRANCH  21  22
ATOM     22  N   MET A   1      14.290 -14.030  13.402  0.00  0.00    -0.238 NA
ATOM     23  H   MET A   1      14.065 -14.782  14.084  0.00  0.00    +0.142 HD
ENDBRANCH  21  22
BRANCH  21  24
ATOM     24  CB  MET A   1      12.375 -14.617  12.018  0.00  0.00    +0.038 C 
BRANCH  24  25
ATOM     25  CG  MET A   1      13.165 -15.607  11.192  0.00  0.00    +0.060 C 
BRANCH  25  26
ATOM     26  SD  MET A   1      12.960 -15.158   9.486  0.00  0.00    -0.139 S 
ATOM     27  CE  MET A   1      13.570 -16.701   8.781  0.00  0.00    +0.069 C 
ENDBRANCH  25  26
ENDBRANCH  24  25
ENDBRANCH  21  24
ENDBRANCH  17  21
ENDBRANCH  16  19
BRANCH  16  28
ATOM     28  CB  ILE A   2      11.613  -9.297  14.353  0.00  0.00    +0.027 C 
ATOM     29  CG2 ILE A   2      12.536  -9.636  15.487  0.00  0.00    +0.002 C 
BRANCH  28  30
ATOM     30  CG1 ILE A   2      12.349  -8.461  13.317  0.00  0.00    +0.002 C 
ATOM     31  CD1 ILE A   2      12.786  -7.118  13.867  0.00  0.00    +0.000 C 
ENDBRANCH  28  30
ENDBRANCH  16  28
ENDBRANCH  12  16
ENDBRANCH  11  13
ENDBRANCH   7  11
ENDBRANCH   6   9
ENDBRANCH   2   6
ENDBRANCH   1   3
BRANCH   1  32
ATOM     32  C   ILE A   5       2.119  -6.518   9.420  0.00  0.00    +0.241 C 
ATOM     33  O   ILE A   5       1.151  -7.267   9.236  0.00  0.00    -0.273 OA
ATOM     34  N   GLY A   6       3.121  -6.404   8.549  0.00  0.00    -0.295 N 
ATOM     35  H   GLY A   6       3.981  -5.865   8.776  0.00  0.00    +0.150 HD
BRANCH  34  36
ATOM     36  CA  GLY A   6       2.955  -7.070   7.263  0.00  0.00    +0.176 C 
BRANCH  36  37
ATOM     37  C   GLY A   6       3.674  -8.407   7.092  0.00  0.00    +0.243 C 
ATOM     38  N   GLY A   7       4.286  -9.000   8.136  0.00  0.00    -0.295 N 
ATOM     39  H   GLY A   7       4.179  -8.618   9.098  0.00  0.00    +0.150 HD
ATOM     40  O   GLY A   6       3.680  -8.893   5.974  0.00  0.00    -0.273 OA
BRANCH  38  41
ATOM     41  CA  GLY A   7       5.105 -10.192   7.894  0.00  0.00    +0.176 C 
BRANCH  41  42
ATOM     42  C   GLY A   7       6.370 -10.172   8.701  0.00  0.00    +0.243 C 
ATOM     43  O   GLY A   7       6.472  -9.404   9.643  0.00  0.00    -0.273 OA
ATOM     44  N   PHE A   8       7.332 -11.012   8.333  0.00  0.00    -0.297 N 
ATOM     45  H   PHE A   8       7.195 -11.612   7.494  0.00  0.00    +0.150 HD
BRANCH  44  46
ATOM     46  CA  PHE A   8       8.574 -11.106   9.085  0.00  0.00    +0.153 C 
BRANCH  46  47
ATOM     47  C   PHE A   8       9.733 -10.565   8.293  0.00  0.00    +0.241 C 
ATOM     48  N   ILE A   9      10.739 -10.087   8.990  0.00  0.00    -0.298 N 
ATOM     49  H   ILE A   9      10.608  -9.820   9.987  0.00  0.00    +0.150 HD
ATOM     50  O   PHE A   8       9.755 -10.618   7.078  0.00  0.00    -0.273 OA
BRANCH  48  51
ATOM     51  CA  ILE A   9      12.037  -9.936   8.352  0.00  0.00    +0.137 C 
BRANCH  51  52
ATOM     52  CB  ILE A   9      12.387  -8.455   8.237  0.00  0.00    +0.026 C 
ATOM     53  CG2 ILE A   9      11.461  -7.774   7.217  0.00  0.00    +0.002 C 
BRANCH  52  54
ATOM     54  CG1 ILE A   9      12.386  -7.780   9.614  0.00  0.00    +0.002 C 
ATOM     55  CD1 ILE A   9      13.114  -6.437   9.588  0.00  0.00    +0.000 C 
ENDBRANCH  52  54
ENDBRANCH  51  52
BRANCH  51  56
ATOM     56  C   ILE A   9      13.102 -10.679   9.168  0.00  0.00    +0.227 C 
ATOM     57  O   ILE A   9      12.900 -10.997  10.342  0.00  0.00    -0.286 OA
ENDBRANCH  51  56
ENDBRANCH  48  51
ENDBRANCH  46  47
BRANCH  46  58
ATOM     58  CB  PHE A   8       8.826 -12.553   9.533  0.00  0.00    +0.055 C 
BRANCH  58  59
ATOM     59  CG  PHE A   8       7.847 -13.035  10.595  0.00  0.00    -0.020 A 
ATOM     60  CD2 PHE A   8       8.282 -13.202  11.916  0.00  0.00    -0.004 A 
ATOM     61  CE2 PHE A   8       7.381 -13.612  12.904  0.00  0.00    -0.000 A 
ATOM     62  CZ  PHE A   8       6.049 -13.854  12.577  0.00  0.00    -0.000 A 
ATOM     63  CE1 PHE A   8       5.619 -13.694  11.254  0.00  0.00    -0.000 A 
ATOM     64  CD1 PHE A   8       6.510 -13.289  10.276  0.00  0.00    -0.004 A 
ENDBRANCH  58  59
ENDBRANCH  46  58
ENDBRANCH  44  46
ENDBRANCH  41  42
ENDBRANCH  38  41
ENDBRANCH  36  37
ENDBRANCH  34  36
ENDBRANCH   1  32
BRANCH   1  65
ATOM     65  CB  ILE A   5       1.989  -4.093  10.360  0.00  0.00    +0.027 C 
ATOM     66  CG2 ILE A   5       1.617  -3.677   8.949  0.00  0.00    +0.002 C 
BRANCH  65  67
ATOM     67  CG1 ILE A   5       1.026  -3.552  11.389  0.00  0.00    +0.002 C 
ATOM     68  CD1 ILE A   5      -0.391  -4.077  11.252  0.00  0.00    +0.000 C 
ENDBRANCH  65  67
ENDBRANCH   1  65
TORSDOF 29
REMARK  Name = ../refined-set-2016/1dif/1dif_pocket.pdb
REMARK  228 active torsions:
REMARK  status: ('A' for Active; 'I' for Inactive)
REMARK    1  A    between atoms: _1  and  _3
REMARK    2  A    between atoms: _3  and  _4
REMARK    3  A    between atoms: _3  and  _6
REMARK    4  A    between atoms: _6  and  _7
REMARK    5  A    between atoms: _7  and  _8
REMARK    6  A    between atoms: _8  and  _9
REMARK    7  A    between atoms: _19  and  _20
REMARK    8  A    between atoms: _25  and  _27
REMARK    9  A    between atoms: _27  and  _28
REMARK   10  A    between atoms: _27  and  _30
REMARK   11  A    between atoms: _30  and  _31
REMARK   12  A    between atoms: _34  and  _36
REMARK   13  A    between atoms: _36  and  _37
REMARK   14  A    between atoms: _36  and  _39
REMARK   15  A    between atoms: _39  and  _40
REMARK   16  A    between atoms: _43  and  _45
REMARK   17  A    between atoms: _45  and  _46
REMARK   18  A    between atoms: _45  and  _48
REMARK   19  A    between atoms: _48  and  _49
REMARK   20  A    between atoms: _52  and  _54
REMARK   21  A    between atoms: _54  and  _55
REMARK   22  A    between atoms: _54  and  _57
REMARK   23  A    between atoms: _57  and  _58
REMARK   24  A    between atoms: _61  and  _63
REMARK   25  A    between atoms: _63  and  _64
REMARK   26  A    between atoms: _63  and  _66
REMARK   27  A    between atoms: _66  and  _67
REMARK   28  A    between atoms: _70  and  _72
REMARK   29  A    between atoms: _72  and  _73
REMARK   30  A    between atoms: _75  and  _77
REMARK   31  A    between atoms: _77  and  _78
REMARK   32  A    between atoms: _81  and  _83
REMARK   33  A    between atoms: _83  and  _84
REMARK   34  A    between atoms: _83  and  _86
REMARK   35  A    between atoms: _86  and  _87
REMARK   36  A    between atoms: _90  and  _92
REMARK   37  A    between atoms: _92  and  _93
REMARK   38  A    between atoms: _92  and  _95
REMARK   39  A    between atoms: _95  and  _96
REMARK   40  A    between atoms: _99  and  _101
REMARK   41  A    between atoms: _101  and  _102
REMARK   42  A    between atoms: _101  and  _104
REMARK   43  A    between atoms: _104  and  _105
REMARK   44  A    between atoms: _108  and  _110
REMARK   45  A    between atoms: _110  and  _111
REMARK   46  A    between atoms: _110  and  _113
REMARK   47  A    between atoms: _116  and  _118
REMARK   48  A    between atoms: _118  and  _119
REMARK   49  A    between atoms: _118  and  _121
REMARK   50  A    between atoms: _121  and  _122
REMARK   51  A    between atoms: _122  and  _123
REMARK   52  A    between atoms: _123  and  _124
REMARK   53  A    between atoms: _124  and  _125
REMARK   54  A    between atoms: _129  and  _131
REMARK   55  A    between atoms: _131  and  _132
REMARK   56  A    between atoms: _131  and  _134
REMARK   57  A    between atoms: _134  and  _135
REMARK   58  A    between atoms: _135  and  _136
REMARK   59  A    between atoms: _138  and  _140
REMARK   60  A    between atoms: _140  and  _141
REMARK   61  A    between atoms: _140  and  _143
REMARK   62  A    between atoms: _143  and  _144
REMARK   63  A    between atoms: _147  and  _149
REMARK   64  A    between atoms: _149  and  _150
REMARK   65  A    between atoms: _152  and  _154
REMARK   66  A    between atoms: _154  and  _155
REMARK   67  A    between atoms: _157  and  _159
REMARK   68  A    between atoms: _159  and  _160
REMARK   69  A    between atoms: _159  and  _162
REMARK   70  A    between atoms: _162  and  _163
REMARK   71  A    between atoms: _166  and  _168
REMARK   72  A    between atoms: _168  and  _169
REMARK   73  A    between atoms: _171  and  _173
REMARK   74  A    between atoms: _173  and  _174
REMARK   75  A    between atoms: _176  and  _178
REMARK   76  A    between atoms: _178  and  _179
REMARK   77  A    between atoms: _178  and  _181
REMARK   78  A    between atoms: _181  and  _182
REMARK   79  A    between atoms: _188  and  _190
REMARK   80  A    between atoms: _190  and  _191
REMARK   81  A    between atoms: _190  and  _193
REMARK   82  A    between atoms: _193  and  _194
REMARK   83  A    between atoms: _197  and  _199
REMARK   84  A    between atoms: _199  and  _200
REMARK   85  A    between atoms: _199  and  _202
REMARK   86  A    between atoms: _205  and  _207
REMARK   87  A    between atoms: _207  and  _208
REMARK   88  A    between atoms: _207  and  _210
REMARK   89  A    between atoms: _210  and  _211
REMARK   90  A    between atoms: _215  and  _216
REMARK   91  A    between atoms: _221  and  _223
REMARK   92  A    between atoms: _223  and  _224
REMARK   93  A    between atoms: _223  and  _226
REMARK   94  A    between atoms: _226  and  _227
REMARK   95  A    between atoms: _231  and  _232
REMARK   96  A    between atoms: _237  and  _239
REMARK   97  A    between atoms: _239  and  _240
REMARK   98  A    between atoms: _239  and  _242
REMARK   99  A    between atoms: _245  and  _247
REMARK  100  A    between atoms: _247  and  _248
REMARK  101  A    between atoms: _247  and  _250
REMARK  102  A    between atoms: _250  and  _251
REMARK  103  A    between atoms: _256  and  _258
REMARK  104  A    between atoms: _258  and  _259
REMARK  105  A    between atoms: _258  and  _261
REMARK  106  A    between atoms: _261  and  _262
REMARK  107  A    between atoms: _265  and  _267
REMARK  108  A    between atoms: _267  and  _268
REMARK  109  A    between atoms: _267  and  _270
REMARK  110  A    between atoms: _270  and  _271
REMARK  111  A    between atoms: _274  and  _276
REMARK  112  A    between atoms: _276  and  _277
REMARK  113  A    between atoms: _279  and  _281
REMARK  114  A    between atoms: _281  and  _282
REMARK  115  A    between atoms: _281  and  _284
REMARK  116  A    between atoms: _284  and  _285
REMARK  117  A    between atoms: _285  and  _286
REMARK  118  A    between atoms: _286  and  _287
REMARK  119  A    between atoms: _296  and  _298
REMARK  120  A    between atoms: _298  and  _299
REMARK  121  A    between atoms: _298  and  _301
REMARK  122  A    between atoms: _301  and  _302
REMARK  123  A    between atoms: _302  and  _303
REMARK  124  A    between atoms: _303  and  _304
REMARK  125  A    between atoms: _314  and  _315
REMARK  126  A    between atoms: _320  and  _322
REMARK  127  A    between atoms: _322  and  _323
REMARK  128  A    between atoms: _322  and  _325
REMARK  129  A    between atoms: _325  and  _326
REMARK  130  A    between atoms: _329  and  _331
REMARK  131  A    between atoms: _331  and  _332
REMARK  132  A    between atoms: _331  and  _334
REMARK  133  A    between atoms: _334  and  _335
REMARK  134  A    between atoms: _338  and  _340
REMARK  135  A    between atoms: _340  and  _341
REMARK  136  A    between atoms: _340  and  _343
REMARK  137  A    between atoms: _343  and  _344
REMARK  138  A    between atoms: _347  and  _349
REMARK  139  A    between atoms: _349  and  _350
REMARK  140  A    between atoms: _349  and  _352
REMARK  141  A    between atoms: _352  and  _353
REMARK  142  A    between atoms: _356  and  _358
REMARK  143  A    between atoms: _358  and  _359
REMARK  144  A    between atoms: _358  and  _361
REMARK  145  A    between atoms: _361  and  _362
REMARK  146  A    between atoms: _365  and  _367
REMARK  147  A    between atoms: _367  and  _368
REMARK  148  A    between atoms: _370  and  _372
REMARK  149  A    between atoms: _372  and  _373
REMARK  150  A    between atoms: _376  and  _378
REMARK  151  A    between atoms: _378  and  _379
REMARK  152  A    between atoms: _378  and  _381
REMARK  153  A    between atoms: _381  and  _382
REMARK  154  A    between atoms: _385  and  _387
REMARK  155  A    between atoms: _387  and  _388
REMARK  156  A    between atoms: _387  and  _390
REMARK  157  A    between atoms: _390  and  _391
REMARK  158  A    between atoms: _394  and  _396
REMARK  159  A    between atoms: _396  and  _397
REMARK  160  A    between atoms: _396  and  _399
REMARK  161  A    between atoms: _399  and  _400
REMARK  162  A    between atoms: _403  and  _405
REMARK  163  A    between atoms: _405  and  _406
REMARK  164  A    between atoms: _405  and  _408
REMARK  165  A    between atoms: _411  and  _413
REMARK  166  A    between atoms: _413  and  _414
REMARK  167  A    between atoms: _413  and  _416
REMARK  168  A    between atoms: _416  and  _417
REMARK  169  A    between atoms: _417  and  _418
REMARK  170  A    between atoms: _420  and  _422
REMARK  171  A    between atoms: _422  and  _423
REMARK  172  A    between atoms: _422  and  _425
REMARK  173  A    between atoms: _425  and  _426
REMARK  174  A    between atoms: _429  and  _431
REMARK  175  A    between atoms: _431  and  _432
REMARK  176  A    between atoms: _434  and  _436
REMARK  177  A    between atoms: _436  and  _437
REMARK  178  A    between atoms: _439  and  _441
REMARK  179  A    between atoms: _441  and  _442
REMARK  180  A    between atoms: _441  and  _444
REMARK  181  A    between atoms: _444  and  _445
REMARK  182  A    between atoms: _448  and  _450
REMARK  183  A    between atoms: _450  and  _451
REMARK  184  A    between atoms: _453  and  _455
REMARK  185  A    between atoms: _455  and  _456
REMARK  186  A    between atoms: _458  and  _460
REMARK  187  A    between atoms: _460  and  _461
REMARK  188  A    between atoms: _460  and  _463
REMARK  189  A    between atoms: _463  and  _464
REMARK  190  A    between atoms: _470  and  _472
REMARK  191  A    between atoms: _472  and  _473
REMARK  192  A    between atoms: _472  and  _475
REMARK  193  A    between atoms: _475  and  _476
REMARK  194  A    between atoms: _479  and  _481
REMARK  195  A    between atoms: _481  and  _482
REMARK  196  A    between atoms: _481  and  _484
REMARK  197  A    between atoms: _487  and  _489
REMARK  198  A    between atoms: _489  and  _490
REMARK  199  A    between atoms: _489  and  _492
REMARK  200  A    between atoms: _492  and  _493
REMARK  201  A    between atoms: _496  and  _498
REMARK  202  A    between atoms: _498  and  _499
REMARK  203  A    between atoms: _498  and  _501
REMARK  204  A    between atoms: _501  and  _502
REMARK  205  A    between atoms: _506  and  _507
REMARK  206  A    between atoms: _512  and  _514
REMARK  207  A    between atoms: _514  and  _515
REMARK  208  A    between atoms: _514  and  _517
REMARK  209  A    between atoms: _520  and  _522
REMARK  210  A    between atoms: _522  and  _523
REMARK  211  A    between atoms: _522  and  _525
REMARK  212  A    between atoms: _525  and  _526
REMARK  213  A    between atoms: _531  and  _533
REMARK  214  A    between atoms: _533  and  _534
REMARK  215  A    between atoms: _533  and  _536
REMARK  216  A    between atoms: _536  and  _537
REMARK  217  A    between atoms: _540  and  _542
REMARK  218  A    between atoms: _542  and  _543
REMARK  219  A    between atoms: _542  and  _545
REMARK  220  A    between atoms: _545  and  _546
REMARK  221  A    between atoms: _549  and  _551
REMARK  222  A    between atoms: _551  and  _552
REMARK  223  A    between atoms: _554  and  _556
REMARK  224  A    between atoms: _556  and  _557
REMARK  225  A    between atoms: _556  and  _559
REMARK  226  A    between atoms: _559  and  _560
REMARK  227  A    between atoms: _560  and  _561
REMARK  228  A    between atoms: _561  and  _562
REMARK                            x       y       z     vdW  Elec       q    Type
REMARK                         _______ _______ _______ _____ _____    ______ ____
ROOT
ATOM      1  CA  VAL A   1      17.751  -9.582  11.542  0.00  0.00    +0.133 C 
ENDROOT
BRANCH   1   2
ATOM      2  CB  VAL A   1      16.887  -8.837  12.599  0.00  0.00    +0.023 C 
ATOM      3  CG2 VAL A   1      16.197  -9.788  13.623  0.00  0.00    +0.002 C 
ATOM      4  CG1 VAL A   1      15.865  -7.943  11.921  0.00  0.00    +0.002 C 
ENDBRANCH   1   2
BRANCH   1   5
ATOM      5  N   VAL A   1      16.866 -10.537  10.903  0.00  0.00    -0.239 NA
ATOM      6  H   VAL A   1      16.650 -11.424  11.401  0.00  0.00    +0.142 HD
ENDBRANCH   1   5
BRANCH   1   7
ATOM      7  C   VAL A   1      18.914 -10.342  12.171  0.00  0.00    +0.224 C 
ATOM      8  O   VAL A   1      18.828 -11.552  12.336  0.00  0.00    -0.287 OA
ENDBRANCH   1   7
TORSDOF 3
REMARK  Name = ../refined-set-2016/1dif/1dif_pocket.pdb
REMARK  228 active torsions:
REMARK  status: ('A' for Active; 'I' for Inactive)
REMARK    1  A    between atoms: _1  and  _3
REMARK    2  A    between atoms: _3  and  _4
REMARK    3  A    between atoms: _3  and  _6
REMARK    4  A    between atoms: _6  and  _7
REMARK    5  A    between atoms: _7  and  _8
REMARK    6  A    between atoms: _8  and  _9
REMARK    7  A    between atoms: _19  and  _20
REMARK    8  A    between atoms: _25  and  _27
REMARK    9  A    between atoms: _27  and  _28
REMARK   10  A    between atoms: _27  and  _30
REMARK   11  A    between atoms: _30  and  _31
REMARK   12  A    between atoms: _34  and  _36
REMARK   13  A    between atoms: _36  and  _37
REMARK   14  A    between atoms: _36  and  _39
REMARK   15  A    between atoms: _39  and  _40
REMARK   16  A    between atoms: _43  and  _45
REMARK   17  A    between atoms: _45  and  _46
REMARK   18  A    between atoms: _45  and  _48
REMARK   19  A    between atoms: _48  and  _49
REMARK   20  A    between atoms: _52  and  _54
REMARK   21  A    between atoms: _54  and  _55
REMARK   22  A    between atoms: _54  and  _57
REMARK   23  A    between atoms: _57  and  _58
REMARK   24  A    between atoms: _61  and  _63
REMARK   25  A    between atoms: _63  and  _64
REMARK   26  A    between atoms: _63  and  _66
REMARK   27  A    between atoms: _66  and  _67
REMARK   28  A    between atoms: _70  and  _72
REMARK   29  A    between atoms: _72  and  _73
REMARK   30  A    between atoms: _75  and  _77
REMARK   31  A    between atoms: _77  and  _78
REMARK   32  A    between atoms: _81  and  _83
REMARK   33  A    between atoms: _83  and  _84
REMARK   34  A    between atoms: _83  and  _86
REMARK   35  A    between atoms: _86  and  _87
REMARK   36  A    between atoms: _90  and  _92
REMARK   37  A    between atoms: _92  and  _93
REMARK   38  A    between atoms: _92  and  _95
REMARK   39  A    between atoms: _95  and  _96
REMARK   40  A    between atoms: _99  and  _101
REMARK   41  A    between atoms: _101  and  _102
REMARK   42  A    between atoms: _101  and  _104
REMARK   43  A    between atoms: _104  and  _105
REMARK   44  A    between atoms: _108  and  _110
REMARK   45  A    between atoms: _110  and  _111
REMARK   46  A    between atoms: _110  and  _113
REMARK   47  A    between atoms: _116  and  _118
REMARK   48  A    between atoms: _118  and  _119
REMARK   49  A    between atoms: _118  and  _121
REMARK   50  A    between atoms: _121  and  _122
REMARK   51  A    between atoms: _122  and  _123
REMARK   52  A    between atoms: _123  and  _124
REMARK   53  A    between atoms: _124  and  _125
REMARK   54  A    between atoms: _129  and  _131
REMARK   55  A    between atoms: _131  and  _132
REMARK   56  A    between atoms: _131  and  _134
REMARK   57  A    between atoms: _134  and  _135
REMARK   58  A    between atoms: _135  and  _136
REMARK   59  A    between atoms: _138  and  _140
REMARK   60  A    between atoms: _140  and  _141
REMARK   61  A    between atoms: _140  and  _143
REMARK   62  A    between atoms: _143  and  _144
REMARK   63  A    between atoms: _147  and  _149
REMARK   64  A    between atoms: _149  and  _150
REMARK   65  A    between atoms: _152  and  _154
REMARK   66  A    between atoms: _154  and  _155
REMARK   67  A    between atoms: _157  and  _159
REMARK   68  A    between atoms: _159  and  _160
REMARK   69  A    between atoms: _159  and  _162
REMARK   70  A    between atoms: _162  and  _163
REMARK   71  A    between atoms: _166  and  _168
REMARK   72  A    between atoms: _168  and  _169
REMARK   73  A    between atoms: _171  and  _173
REMARK   74  A    between atoms: _173  and  _174
REMARK   75  A    between atoms: _176  and  _178
REMARK   76  A    between atoms: _178  and  _179
REMARK   77  A    between atoms: _178  and  _181
REMARK   78  A    between atoms: _181  and  _182
REMARK   79  A    between atoms: _188  and  _190
REMARK   80  A    between atoms: _190  and  _191
REMARK   81  A    between atoms: _190  and  _193
REMARK   82  A    between atoms: _193  and  _194
REMARK   83  A    between atoms: _197  and  _199
REMARK   84  A    between atoms: _199  and  _200
REMARK   85  A    between atoms: _199  and  _202
REMARK   86  A    between atoms: _205  and  _207
REMARK   87  A    between atoms: _207  and  _208
REMARK   88  A    between atoms: _207  and  _210
REMARK   89  A    between atoms: _210  and  _211
REMARK   90  A    between atoms: _215  and  _216
REMARK   91  A    between atoms: _221  and  _223
REMARK   92  A    between atoms: _223  and  _224
REMARK   93  A    between atoms: _223  and  _226
REMARK   94  A    between atoms: _226  and  _227
REMARK   95  A    between atoms: _231  and  _232
REMARK   96  A    between atoms: _237  and  _239
REMARK   97  A    between atoms: _239  and  _240
REMARK   98  A    between atoms: _239  and  _242
REMARK   99  A    between atoms: _245  and  _247
REMARK  100  A    between atoms: _247  and  _248
REMARK  101  A    between atoms: _247  and  _250
REMARK  102  A    between atoms: _250  and  _251
REMARK  103  A    between atoms: _256  and  _258
REMARK  104  A    between atoms: _258  and  _259
REMARK  105  A    between atoms: _258  and  _261
REMARK  106  A    between atoms: _261  and  _262
REMARK  107  A    between atoms: _265  and  _267
REMARK  108  A    between atoms: _267  and  _268
REMARK  109  A    between atoms: _267  and  _270
REMARK  110  A    between atoms: _270  and  _271
REMARK  111  A    between atoms: _274  and  _276
REMARK  112  A    between atoms: _276  and  _277
REMARK  113  A    between atoms: _279  and  _281
REMARK  114  A    between atoms: _281  and  _282
REMARK  115  A    between atoms: _281  and  _284
REMARK  116  A    between atoms: _284  and  _285
REMARK  117  A    between atoms: _285  and  _286
REMARK  118  A    between atoms: _286  and  _287
REMARK  119  A    between atoms: _296  and  _298
REMARK  120  A    between atoms: _298  and  _299
REMARK  121  A    between atoms: _298  and  _301
REMARK  122  A    between atoms: _301  and  _302
REMARK  123  A    between atoms: _302  and  _303
REMARK  124  A    between atoms: _303  and  _304
REMARK  125  A    between atoms: _314  and  _315
REMARK  126  A    between atoms: _320  and  _322
REMARK  127  A    between atoms: _322  and  _323
REMARK  128  A    between atoms: _322  and  _325
REMARK  129  A    between atoms: _325  and  _326
REMARK  130  A    between atoms: _329  and  _331
REMARK  131  A    between atoms: _331  and  _332
REMARK  132  A    between atoms: _331  and  _334
REMARK  133  A    between atoms: _334  and  _335
REMARK  134  A    between atoms: _338  and  _340
REMARK  135  A    between atoms: _340  and  _341
REMARK  136  A    between atoms: _340  and  _343
REMARK  137  A    between atoms: _343  and  _344
REMARK  138  A    between atoms: _347  and  _349
REMARK  139  A    between atoms: _349  and  _350
REMARK  140  A    between atoms: _349  and  _352
REMARK  141  A    between atoms: _352  and  _353
REMARK  142  A    between atoms: _356  and  _358
REMARK  143  A    between atoms: _358  and  _359
REMARK  144  A    between atoms: _358  and  _361
REMARK  145  A    between atoms: _361  and  _362
REMARK  146  A    between atoms: _365  and  _367
REMARK  147  A    between atoms: _367  and  _368
REMARK  148  A    between atoms: _370  and  _372
REMARK  149  A    between atoms: _372  and  _373
REMARK  150  A    between atoms: _376  and  _378
REMARK  151  A    between atoms: _378  and  _379
REMARK  152  A    between atoms: _378  and  _381
REMARK  153  A    between atoms: _381  and  _382
REMARK  154  A    between atoms: _385  and  _387
REMARK  155  A    between atoms: _387  and  _388
REMARK  156  A    between atoms: _387  and  _390
REMARK  157  A    between atoms: _390  and  _391
REMARK  158  A    between atoms: _394  and  _396
REMARK  159  A    between atoms: _396  and  _397
REMARK  160  A    between atoms: _396  and  _399
REMARK  161  A    between atoms: _399  and  _400
REMARK  162  A    between atoms: _403  and  _405
REMARK  163  A    between atoms: _405  and  _406
REMARK  164  A    between atoms: _405  and  _408
REMARK  165  A    between atoms: _411  and  _413
REMARK  166  A    between atoms: _413  and  _414
REMARK  167  A    between atoms: _413  and  _416
REMARK  168  A    between atoms: _416  and  _417
REMARK  169  A    between atoms: _417  and  _418
REMARK  170  A    between atoms: _420  and  _422
REMARK  171  A    between atoms: _422  and  _423
REMARK  172  A    between atoms: _422  and  _425
REMARK  173  A    between atoms: _425  and  _426
REMARK  174  A    between atoms: _429  and  _431
REMARK  175  A    between atoms: _431  and  _432
REMARK  176  A    between atoms: _434  and  _436
REMARK  177  A    between atoms: _436  and  _437
REMARK  178  A    between atoms: _439  and  _441
REMARK  179  A    between atoms: _441  and  _442
REMARK  180  A    between atoms: _441  and  _444
REMARK  181  A    between atoms: _444  and  _445
REMARK  182  A    between atoms: _448  and  _450
REMARK  183  A    between atoms: _450  and  _451
REMARK  184  A    between atoms: _453  and  _455
REMARK  185  A    between atoms: _455  and  _456
REMARK  186  A    between atoms: _458  and  _460
REMARK  187  A    between atoms: _460  and  _461
REMARK  188  A    between atoms: _460  and  _463
REMARK  189  A    between atoms: _463  and  _464
REMARK  190  A    between atoms: _470  and  _472
REMARK  191  A    between atoms: _472  and  _473
REMARK  192  A    between atoms: _472  and  _475
REMARK  193  A    between atoms: _475  and  _476
REMARK  194  A    between atoms: _479  and  _481
REMARK  195  A    between atoms: _481  and  _482
REMARK  196  A    between atoms: _481  and  _484
REMARK  197  A    between atoms: _487  and  _489
REMARK  198  A    between atoms: _489  and  _490
REMARK  199  A    between atoms: _489  and  _492
REMARK  200  A    between atoms: _492  and  _493
REMARK  201  A    between atoms: _496  and  _498
REMARK  202  A    between atoms: _498  and  _499
REMARK  203  A    between atoms: _498  and  _501
REMARK  204  A    between atoms: _501  and  _502
REMARK  205  A    between atoms: _506  and  _507
REMARK  206  A    between atoms: _512  and  _514
REMARK  207  A    between atoms: _514  and  _515
REMARK  208  A    between atoms: _514  and  _517
REMARK  209  A    between atoms: _520  and  _522
REMARK  210  A    between atoms: _522  and  _523
REMARK  211  A    between atoms: _522  and  _525
REMARK  212  A    between atoms: _525  and  _526
REMARK  213  A    between atoms: _531  and  _533
REMARK  214  A    between atoms: _533  and  _534
REMARK  215  A    between atoms: _533  and  _536
REMARK  216  A    between atoms: _536  and  _537
REMARK  217  A    between atoms: _540  and  _542
REMARK  218  A    between atoms: _542  and  _543
REMARK  219  A    between atoms: _542  and  _545
REMARK  220  A    between atoms: _545  and  _546
REMARK  221  A    between atoms: _549  and  _551
REMARK  222  A    between atoms: _551  and  _552
REMARK  223  A    between atoms: _554  and  _556
REMARK  224  A    between atoms: _556  and  _557
REMARK  225  A    between atoms: _556  and  _559
REMARK  226  A    between atoms: _559  and  _560
REMARK  227  A    between atoms: _560  and  _561
REMARK  228  A    between atoms: _561  and  _562
REMARK                            x       y       z     vdW  Elec       q    Type
REMARK                         _______ _______ _______ _____ _____    ______ ____
ROOT
ATOM      1  CA  LEU A   1      18.432  -6.413  16.306  0.00  0.00    +0.133 C 
ENDROOT
BRANCH   1   2
ATOM      2  N   LEU A   1      18.583  -5.666  17.561  0.00  0.00    -0.239 NA
ATOM      3  H   LEU A   1      17.853  -4.966  17.803  0.00  0.00    +0.142 HD
ENDBRANCH   1   2
BRANCH   1   4
ATOM      4  C   LEU A   1      18.734  -5.453  15.127  0.00  0.00    +0.224 C 
ATOM      5  O   LEU A   1      18.223  -4.338  15.054  0.00  0.00    -0.287 OA
ENDBRANCH   1   4
BRANCH   1   6
ATOM      6  CB  LEU A   1      17.023  -7.023  16.158  0.00  0.00    +0.025 C 
BRANCH   6   7
ATOM      7  CG  LEU A   1      16.427  -7.612  17.449  0.00  0.00    +0.002 C 
ATOM      8  CD2 LEU A   1      17.266  -8.758  18.019  0.00  0.00    +0.000 C 
ATOM      9  CD1 LEU A   1      14.992  -8.075  17.263  0.00  0.00    +0.000 C 
ENDBRANCH   6   7
ENDBRANCH   1   6
TORSDOF 4
REMARK  Name = ../refined-set-2016/1dif/1dif_pocket.pdb
REMARK  228 active torsions:
REMARK  status: ('A' for Active; 'I' for Inactive)
REMARK    1  A    between atoms: _1  and  _3
REMARK    2  A    between atoms: _3  and  _4
REMARK    3  A    between atoms: _3  and  _6
REMARK    4  A    between atoms: _6  and  _7
REMARK    5  A    between atoms: _7  and  _8
REMARK    6  A    between atoms: _8  and  _9
REMARK    7  A    between atoms: _19  and  _20
REMARK    8  A    between atoms: _25  and  _27
REMARK    9  A    between atoms: _27  and  _28
REMARK   10  A    between atoms: _27  and  _30
REMARK   11  A    between atoms: _30  and  _31
REMARK   12  A    between atoms: _34  and  _36
REMARK   13  A    between atoms: _36  and  _37
REMARK   14  A    between atoms: _36  and  _39
REMARK   15  A    between atoms: _39  and  _40
REMARK   16  A    between atoms: _43  and  _45
REMARK   17  A    between atoms: _45  and  _46
REMARK   18  A    between atoms: _45  and  _48
REMARK   19  A    between atoms: _48  and  _49
REMARK   20  A    between atoms: _52  and  _54
REMARK   21  A    between atoms: _54  and  _55
REMARK   22  A    between atoms: _54  and  _57
REMARK   23  A    between atoms: _57  and  _58
REMARK   24  A    between atoms: _61  and  _63
REMARK   25  A    between atoms: _63  and  _64
REMARK   26  A    between atoms: _63  and  _66
REMARK   27  A    between atoms: _66  and  _67
REMARK   28  A    between atoms: _70  and  _72
REMARK   29  A    between atoms: _72  and  _73
REMARK   30  A    between atoms: _75  and  _77
REMARK   31  A    between atoms: _77  and  _78
REMARK   32  A    between atoms: _81  and  _83
REMARK   33  A    between atoms: _83  and  _84
REMARK   34  A    between atoms: _83  and  _86
REMARK   35  A    between atoms: _86  and  _87
REMARK   36  A    between atoms: _90  and  _92
REMARK   37  A    between atoms: _92  and  _93
REMARK   38  A    between atoms: _92  and  _95
REMARK   39  A    between atoms: _95  and  _96
REMARK   40  A    between atoms: _99  and  _101
REMARK   41  A    between atoms: _101  and  _102
REMARK   42  A    between atoms: _101  and  _104
REMARK   43  A    between atoms: _104  and  _105
REMARK   44  A    between atoms: _108  and  _110
REMARK   45  A    between atoms: _110  and  _111
REMARK   46  A    between atoms: _110  and  _113
REMARK   47  A    between atoms: _116  and  _118
REMARK   48  A    between atoms: _118  and  _119
REMARK   49  A    between atoms: _118  and  _121
REMARK   50  A    between atoms: _121  and  _122
REMARK   51  A    between atoms: _122  and  _123
REMARK   52  A    between atoms: _123  and  _124
REMARK   53  A    between atoms: _124  and  _125
REMARK   54  A    between atoms: _129  and  _131
REMARK   55  A    between atoms: _131  and  _132
REMARK   56  A    between atoms: _131  and  _134
REMARK   57  A    between atoms: _134  and  _135
REMARK   58  A    between atoms: _135  and  _136
REMARK   59  A    between atoms: _138  and  _140
REMARK   60  A    between atoms: _140  and  _141
REMARK   61  A    between atoms: _140  and  _143
REMARK   62  A    between atoms: _143  and  _144
REMARK   63  A    between atoms: _147  and  _149
REMARK   64  A    between atoms: _149  and  _150
REMARK   65  A    between atoms: _152  and  _154
REMARK   66  A    between atoms: _154  and  _155
REMARK   67  A    between atoms: _157  and  _159
REMARK   68  A    between atoms: _159  and  _160
REMARK   69  A    between atoms: _159  and  _162
REMARK   70  A    between atoms: _162  and  _163
REMARK   71  A    between atoms: _166  and  _168
REMARK   72  A    between atoms: _168  and  _169
REMARK   73  A    between atoms: _171  and  _173
REMARK   74  A    between atoms: _173  and  _174
REMARK   75  A    between atoms: _176  and  _178
REMARK   76  A    between atoms: _178  and  _179
REMARK   77  A    between atoms: _178  and  _181
REMARK   78  A    between atoms: _181  and  _182
REMARK   79  A    between atoms: _188  and  _190
REMARK   80  A    between atoms: _190  and  _191
REMARK   81  A    between atoms: _190  and  _193
REMARK   82  A    between atoms: _193  and  _194
REMARK   83  A    between atoms: _197  and  _199
REMARK   84  A    between atoms: _199  and  _200
REMARK   85  A    between atoms: _199  and  _202
REMARK   86  A    between atoms: _205  and  _207
REMARK   87  A    between atoms: _207  and  _208
REMARK   88  A    between atoms: _207  and  _210
REMARK   89  A    between atoms: _210  and  _211
REMARK   90  A    between atoms: _215  and  _216
REMARK   91  A    between atoms: _221  and  _223
REMARK   92  A    between atoms: _223  and  _224
REMARK   93  A    between atoms: _223  and  _226
REMARK   94  A    between atoms: _226  and  _227
REMARK   95  A    between atoms: _231  and  _232
REMARK   96  A    between atoms: _237  and  _239
REMARK   97  A    between atoms: _239  and  _240
REMARK   98  A    between atoms: _239  and  _242
REMARK   99  A    between atoms: _245  and  _247
REMARK  100  A    between atoms: _247  and  _248
REMARK  101  A    between atoms: _247  and  _250
REMARK  102  A    between atoms: _250  and  _251
REMARK  103  A    between atoms: _256  and  _258
REMARK  104  A    between atoms: _258  and  _259
REMARK  105  A    between atoms: _258  and  _261
REMARK  106  A    between atoms: _261  and  _262
REMARK  107  A    between atoms: _265  and  _267
REMARK  108  A    between atoms: _267  and  _268
REMARK  109  A    between atoms: _267  and  _270
REMARK  110  A    between atoms: _270  and  _271
REMARK  111  A    between atoms: _274  and  _276
REMARK  112  A    between atoms: _276  and  _277
REMARK  113  A    between atoms: _279  and  _281
REMARK  114  A    between atoms: _281  and  _282
REMARK  115  A    between atoms: _281  and  _284
REMARK  116  A    between atoms: _284  and  _285
REMARK  117  A    between atoms: _285  and  _286
REMARK  118  A    between atoms: _286  and  _287
REMARK  119  A    between atoms: _296  and  _298
REMARK  120  A    between atoms: _298  and  _299
REMARK  121  A    between atoms: _298  and  _301
REMARK  122  A    between atoms: _301  and  _302
REMARK  123  A    between atoms: _302  and  _303
REMARK  124  A    between atoms: _303  and  _304
REMARK  125  A    between atoms: _314  and  _315
REMARK  126  A    between atoms: _320  and  _322
REMARK  127  A    between atoms: _322  and  _323
REMARK  128  A    between atoms: _322  and  _325
REMARK  129  A    between atoms: _325  and  _326
REMARK  130  A    between atoms: _329  and  _331
REMARK  131  A    between atoms: _331  and  _332
REMARK  132  A    between atoms: _331  and  _334
REMARK  133  A    between atoms: _334  and  _335
REMARK  134  A    between atoms: _338  and  _340
REMARK  135  A    between atoms: _340  and  _341
REMARK  136  A    between atoms: _340  and  _343
REMARK  137  A    between atoms: _343  and  _344
REMARK  138  A    between atoms: _347  and  _349
REMARK  139  A    between atoms: _349  and  _350
REMARK  140  A    between atoms: _349  and  _352
REMARK  141  A    between atoms: _352  and  _353
REMARK  142  A    between atoms: _356  and  _358
REMARK  143  A    between atoms: _358  and  _359
REMARK  144  A    between atoms: _358  and  _361
REMARK  145  A    between atoms: _361  and  _362
REMARK  146  A    between atoms: _365  and  _367
REMARK  147  A    between atoms: _367  and  _368
REMARK  148  A    between atoms: _370  and  _372
REMARK  149  A    between atoms: _372  and  _373
REMARK  150  A    between atoms: _376  and  _378
REMARK  151  A    between atoms: _378  and  _379
REMARK  152  A    between atoms: _378  and  _381
REMARK  153  A    between atoms: _381  and  _382
REMARK  154  A    between atoms: _385  and  _387
REMARK  155  A    between atoms: _387  and  _388
REMARK  156  A    between atoms: _387  and  _390
REMARK  157  A    between atoms: _390  and  _391
REMARK  158  A    between atoms: _394  and  _396
REMARK  159  A    between atoms: _396  and  _397
REMARK  160  A    between atoms: _396  and  _399
REMARK  161  A    between atoms: _399  and  _400
REMARK  162  A    between atoms: _403  and  _405
REMARK  163  A    between atoms: _405  and  _406
REMARK  164  A    between atoms: _405  and  _408
REMARK  165  A    between atoms: _411  and  _413
REMARK  166  A    between atoms: _413  and  _414
REMARK  167  A    between atoms: _413  and  _416
REMARK  168  A    between atoms: _416  and  _417
REMARK  169  A    between atoms: _417  and  _418
REMARK  170  A    between atoms: _420  and  _422
REMARK  171  A    between atoms: _422  and  _423
REMARK  172  A    between atoms: _422  and  _425
REMARK  173  A    between atoms: _425  and  _426
REMARK  174  A    between atoms: _429  and  _431
REMARK  175  A    between atoms: _431  and  _432
REMARK  176  A    between atoms: _434  and  _436
REMARK  177  A    between atoms: _436  and  _437
REMARK  178  A    between atoms: _439  and  _441
REMARK  179  A    between atoms: _441  and  _442
REMARK  180  A    between atoms: _441  and  _444
REMARK  181  A    between atoms: _444  and  _445
REMARK  182  A    between atoms: _448  and  _450
REMARK  183  A    between atoms: _450  and  _451
REMARK  184  A    between atoms: _453  and  _455
REMARK  185  A    between atoms: _455  and  _456
REMARK  186  A    between atoms: _458  and  _460
REMARK  187  A    between atoms: _460  and  _461
REMARK  188  A    between atoms: _460  and  _463
REMARK  189  A    between atoms: _463  and  _464
REMARK  190  A    between atoms: _470  and  _472
REMARK  191  A    between atoms: _472  and  _473
REMARK  192  A    between atoms: _472  and  _475
REMARK  193  A    between atoms: _475  and  _476
REMARK  194  A    between atoms: _479  and  _481
REMARK  195  A    between atoms: _481  and  _482
REMARK  196  A    between atoms: _481  and  _484
REMARK  197  A    between atoms: _487  and  _489
REMARK  198  A    between atoms: _489  and  _490
REMARK  199  A    between atoms: _489  and  _492
REMARK  200  A    between atoms: _492  and  _493
REMARK  201  A    between atoms: _496  and  _498
REMARK  202  A    between atoms: _498  and  _499
REMARK  203  A    between atoms: _498  and  _501
REMARK  204  A    between atoms: _501  and  _502
REMARK  205  A    between atoms: _506  and  _507
REMARK  206  A    between atoms: _512  and  _514
REMARK  207  A    between atoms: _514  and  _515
REMARK  208  A    between atoms: _514  and  _517
REMARK  209  A    between atoms: _520  and  _522
REMARK  210  A    between atoms: _522  and  _523
REMARK  211  A    between atoms: _522  and  _525
REMARK  212  A    between atoms: _525  and  _526
REMARK  213  A    between atoms: _531  and  _533
REMARK  214  A    between atoms: _533  and  _534
REMARK  215  A    between atoms: _533  and  _536
REMARK  216  A    between atoms: _536  and  _537
REMARK  217  A    between atoms: _540  and  _542
REMARK  218  A    between atoms: _542  and  _543
REMARK  219  A    between atoms: _542  and  _545
REMARK  220  A    between atoms: _545  and  _546
REMARK  221  A    between atoms: _549  and  _551
REMARK  222  A    between atoms: _551  and  _552
REMARK  223  A    between atoms: _554  and  _556
REMARK  224  A    between atoms: _556  and  _557
REMARK  225  A    between atoms: _556  and  _559
REMARK  226  A    between atoms: _559  and  _560
REMARK  227  A    between atoms: _560  and  _561
REMARK  228  A    between atoms: _561  and  _562
REMARK                            x       y       z     vdW  Elec       q    Type
REMARK                         _______ _______ _______ _____ _____    ______ ____
ROOT
ATOM      1  CA  ILE A   5      13.165   1.638  16.693  0.00  0.00    +0.149 C 
ENDROOT
BRANCH   1   3
ATOM      2  C   ASN A   4      14.462   2.891  15.048  0.00  0.00    +0.241 C 
ATOM      3  N   ILE A   5      14.246   1.774  15.720  0.00  0.00    -0.297 N 
ATOM      4  H   ILE A   5      14.870   0.960  15.549  0.00  0.00    +0.150 HD
ATOM      5  O   ASN A   4      13.855   3.930  15.247  0.00  0.00    -0.273 OA
BRANCH   2   6
ATOM      6  CA  ASN A   4      15.527   2.848  13.981  0.00  0.00    +0.158 C 
BRANCH   6   8
ATOM      7  C   VAL A   3      14.167   2.638  12.033  0.00  0.00    +0.241 C 
ATOM      8  N   ASN A   4      14.950   3.436  12.766  0.00  0.00    -0.297 N 
ATOM      9  H   ASN A   4      15.140   4.421  12.490  0.00  0.00    +0.150 HD
ATOM     10  O   VAL A   3      14.030   1.449  12.270  0.00  0.00    -0.273 OA
BRANCH   7  11
ATOM     11  CA  VAL A   3      13.378   3.294  10.899  0.00  0.00    +0.149 C 
BRANCH  11  13
ATOM     12  C   PRO A   2      13.381   2.754   8.502  0.00  0.00    +0.241 C 
ATOM     13  N   VAL A   3      13.201   2.355   9.784  0.00  0.00    -0.297 N 
ATOM     14  H   VAL A   3      12.934   1.370   9.981  0.00  0.00    +0.150 HD
ATOM     15  O   PRO A   2      13.793   3.869   8.177  0.00  0.00    -0.273 OA
BRANCH  12  22
ATOM     16  C   THR A   1      14.329  -0.166   8.188  0.00  0.00    +0.244 C 
ATOM     17  O   THR A   1      15.384   0.434   8.014  0.00  0.00    -0.273 OA
ATOM     18  N   PRO A   2      13.118   0.355   7.857  0.00  0.00    -0.272 N 
ATOM     19  CD  PRO A   2      11.865  -0.383   7.799  0.00  0.00    +0.094 C 
ATOM     20  CG  PRO A   2      10.811   0.686   7.479  0.00  0.00    +0.024 C 
ATOM     21  CB  PRO A   2      11.546   1.917   6.987  0.00  0.00    +0.031 C 
ATOM     22  CA  PRO A   2      13.000   1.739   7.439  0.00  0.00    +0.152 C 
BRANCH  16  23
ATOM     23  CA  THR A   1      14.354  -1.548   8.860  0.00  0.00    +0.172 C 
BRANCH  23  24
ATOM     24  N   THR A   1      15.581  -2.258   8.466  0.00  0.00    -0.236 NA
ATOM     25  H   THR A   1      16.406  -2.284   9.099  0.00  0.00    +0.142 HD
ENDBRANCH  23  24
BRANCH  23  26
ATOM     26  CB  THR A   1      14.273  -1.500  10.412  0.00  0.00    +0.135 C 
ATOM     27  CG2 THR A   1      15.506  -0.908  11.085  0.00  0.00    +0.034 C 
BRANCH  26  28
ATOM     28  OG1 THR A   1      13.089  -0.811  10.809  0.00  0.00    -0.383 OA
ATOM     29  HG1 THR A   1      13.110   0.112  10.452  0.00  0.00    +0.210 HD
ENDBRANCH  26  28
ENDBRANCH  23  26
ENDBRANCH  16  23
ENDBRANCH  12  22
ENDBRANCH  11  13
BRANCH  11  30
ATOM     30  CB  VAL A   3      11.980   3.687  11.435  0.00  0.00    +0.027 C 
ATOM     31  CG2 VAL A   3      12.055   4.961  12.269  0.00  0.00    +0.002 C 
ATOM     32  CG1 VAL A   3      10.957   3.858  10.323  0.00  0.00    +0.002 C 
ENDBRANCH  11  30
ENDBRANCH   7  11
ENDBRANCH   6   8
BRANCH   6  33
ATOM     33  CB  ASN A   4      16.732   3.626  14.501  0.00  0.00    +0.114 C 
BRANCH  33  34
ATOM     34  CG  ASN A   4      17.934   3.560  13.581  0.00  0.00    +0.222 C 
ATOM     35  ND2 ASN A   4      18.437   4.739  13.238  0.00  0.00    -0.329 N 
ATOM     36 HD21 ASN A   4      18.012   5.613  13.608  0.00  0.00    +0.145 HD
ATOM     37 HD22 ASN A   4      19.257   4.789  12.600  0.00  0.00    +0.145 HD
ATOM     38  OD1 ASN A   4      18.412   2.515  13.163  0.00  0.00    -0.275 OA
ENDBRANCH  33  34
ENDBRANCH   6  33
ENDBRANCH   2   6
ENDBRANCH   1   3
BRANCH   1  39
ATOM     39  C   ILE A   5      13.769   1.309  18.032  0.00  0.00    +0.241 C 
ATOM     40  N   ILE A   6      13.486   2.142  19.036  0.00  0.00    -0.297 N 
ATOM     41  H   ILE A   6      13.015   3.045  18.827  0.00  0.00    +0.150 HD
ATOM     42  O   ILE A   5      14.421   0.292  18.150  0.00  0.00    -0.273 OA
BRANCH  40  43
ATOM     43  CA  ILE A   6      13.822   1.818  20.427  0.00  0.00    +0.149 C 
BRANCH  43  44
ATOM     44  C   ILE A   6      12.538   1.245  21.088  0.00  0.00    +0.241 C 
ATOM     45  N   GLY A   7      12.599  -0.045  21.430  0.00  0.00    -0.295 N 
ATOM     46  H   GLY A   7      13.474  -0.575  21.244  0.00  0.00    +0.150 HD
ATOM     47  O   ILE A   6      11.537   1.950  21.253  0.00  0.00    -0.273 OA
BRANCH  45  48
ATOM     48  CA  GLY A   7      11.480  -0.729  22.054  0.00  0.00    +0.176 C 
BRANCH  48  49
ATOM     49  C   GLY A   7      11.577  -0.750  23.562  0.00  0.00    +0.243 C 
ATOM     50  O   GLY A   7      12.422  -0.164  24.231  0.00  0.00    -0.273 OA
ATOM     51  N   ARG A   8      10.660  -1.489  24.126  0.00  0.00    -0.298 N 
ATOM     52  H   ARG A   8      10.043  -2.082  23.536  0.00  0.00    +0.150 HD
BRANCH  51  53
ATOM     53  CA  ARG A   8      10.492  -1.491  25.578  0.00  0.00    +0.137 C 
BRANCH  53  54
ATOM     54  C   ARG A   8      11.643  -2.022  26.351  0.00  0.00    +0.227 C 
ATOM     55  O   ARG A   8      11.859  -1.627  27.491  0.00  0.00    -0.286 OA
ENDBRANCH  53  54
BRANCH  53  56
ATOM     56  CB  ARG A   8       9.275  -2.277  25.985  0.00  0.00    +0.031 C 
BRANCH  56  57
ATOM     57  CG  ARG A   8       7.985  -1.617  25.547  0.00  0.00    +0.045 C 
BRANCH  57  58
ATOM     58  CD  ARG A   8       6.776  -2.277  26.189  0.00  0.00    +0.174 C 
BRANCH  58  59
ATOM     59  NE  ARG A   8       6.691  -3.691  25.838  0.00  0.00    -0.265 N 
ATOM     60  CZ  ARG A   8       7.130  -4.763  26.531  0.00  0.00    +0.342 C 
ATOM     61  NH2 ARG A   8       7.652  -4.668  27.735  0.00  0.00    -0.292 N 
ATOM     62 HH21 ARG A   8       7.977  -5.523  28.230  0.00  0.00    +0.255 HD
ATOM     63 HH22 ARG A   8       7.740  -3.738  28.192  0.00  0.00    +0.255 HD
ATOM     64  NH1 ARG A   8       7.065  -5.964  25.989  0.00  0.00    -0.292 N 
ATOM     65 HH11 ARG A   8       7.402  -6.793  26.519  0.00  0.00    +0.255 HD
ATOM     66 HH12 ARG A   8       6.677  -6.082  25.031  0.00  0.00    +0.255 HD
ATOM     67  HE  ARG A   8       6.229  -3.901  24.930  0.00  0.00    +0.259 HD
ENDBRANCH  58  59
ENDBRANCH  57  58
ENDBRANCH  56  57
ENDBRANCH  53  56
ENDBRANCH  51  53
ENDBRANCH  48  49
ENDBRANCH  45  48
ENDBRANCH  43  44
BRANCH  43  68
ATOM     68  CB  ILE A   6      14.322   3.101  21.133  0.00  0.00    +0.027 C 
ATOM     69  CG2 ILE A   6      14.674   2.852  22.583  0.00  0.00    +0.002 C 
BRANCH  68  70
ATOM     70  CG1 ILE A   6      15.463   3.851  20.408  0.00  0.00    +0.002 C 
ATOM     71  CD1 ILE A   6      16.730   3.055  20.262  0.00  0.00    +0.000 C 
ENDBRANCH  68  70
ENDBRANCH  43  68
ENDBRANCH  40  43
ENDBRANCH   1  39
BRANCH   1  72
ATOM     72  CB  ILE A   5      12.223   0.509  16.272  0.00  0.00    +0.027 C 
ATOM     73  CG2 ILE A   5      11.117   0.240  17.324  0.00  0.00    +0.002 C 
BRANCH  72  74
ATOM     74  CG1 ILE A   5      11.655   0.761  14.840  0.00  0.00    +0.002 C 
ATOM     75  CD1 ILE A   5      10.770  -0.359  14.291  0.00  0.00    +0.000 C 
ENDBRANCH  72  74
ENDBRANCH   1  72
TORSDOF 28
REMARK  Name = ../refined-set-2016/1dif/1dif_pocket.pdb
REMARK  228 active torsions:
REMARK  status: ('A' for Active; 'I' for Inactive)
REMARK    1  A    between atoms: _1  and  _3
REMARK    2  A    between atoms: _3  and  _4
REMARK    3  A    between atoms: _3  and  _6
REMARK    4  A    between atoms: _6  and  _7
REMARK    5  A    between atoms: _7  and  _8
REMARK    6  A    between atoms: _8  and  _9
REMARK    7  A    between atoms: _19  and  _20
REMARK    8  A    between atoms: _25  and  _27
REMARK    9  A    between atoms: _27  and  _28
REMARK   10  A    between atoms: _27  and  _30
REMARK   11  A    between atoms: _30  and  _31
REMARK   12  A    between atoms: _34  and  _36
REMARK   13  A    between atoms: _36  and  _37
REMARK   14  A    between atoms: _36  and  _39
REMARK   15  A    between atoms: _39  and  _40
REMARK   16  A    between atoms: _43  and  _45
REMARK   17  A    between atoms: _45  and  _46
REMARK   18  A    between atoms: _45  and  _48
REMARK   19  A    between atoms: _48  and  _49
REMARK   20  A    between atoms: _52  and  _54
REMARK   21  A    between atoms: _54  and  _55
REMARK   22  A    between atoms: _54  and  _57
REMARK   23  A    between atoms: _57  and  _58
REMARK   24  A    between atoms: _61  and  _63
REMARK   25  A    between atoms: _63  and  _64
REMARK   26  A    between atoms: _63  and  _66
REMARK   27  A    between atoms: _66  and  _67
REMARK   28  A    between atoms: _70  and  _72
REMARK   29  A    between atoms: _72  and  _73
REMARK   30  A    between atoms: _75  and  _77
REMARK   31  A    between atoms: _77  and  _78
REMARK   32  A    between atoms: _81  and  _83
REMARK   33  A    between atoms: _83  and  _84
REMARK   34  A    between atoms: _83  and  _86
REMARK   35  A    between atoms: _86  and  _87
REMARK   36  A    between atoms: _90  and  _92
REMARK   37  A    between atoms: _92  and  _93
REMARK   38  A    between atoms: _92  and  _95
REMARK   39  A    between atoms: _95  and  _96
REMARK   40  A    between atoms: _99  and  _101
REMARK   41  A    between atoms: _101  and  _102
REMARK   42  A    between atoms: _101  and  _104
REMARK   43  A    between atoms: _104  and  _105
REMARK   44  A    between atoms: _108  and  _110
REMARK   45  A    between atoms: _110  and  _111
REMARK   46  A    between atoms: _110  and  _113
REMARK   47  A    between atoms: _116  and  _118
REMARK   48  A    between atoms: _118  and  _119
REMARK   49  A    between atoms: _118  and  _121
REMARK   50  A    between atoms: _121  and  _122
REMARK   51  A    between atoms: _122  and  _123
REMARK   52  A    between atoms: _123  and  _124
REMARK   53  A    between atoms: _124  and  _125
REMARK   54  A    between atoms: _129  and  _131
REMARK   55  A    between atoms: _131  and  _132
REMARK   56  A    between atoms: _131  and  _134
REMARK   57  A    between atoms: _134  and  _135
REMARK   58  A    between atoms: _135  and  _136
REMARK   59  A    between atoms: _138  and  _140
REMARK   60  A    between atoms: _140  and  _141
REMARK   61  A    between atoms: _140  and  _143
REMARK   62  A    between atoms: _143  and  _144
REMARK   63  A    between atoms: _147  and  _149
REMARK   64  A    between atoms: _149  and  _150
REMARK   65  A    between atoms: _152  and  _154
REMARK   66  A    between atoms: _154  and  _155
REMARK   67  A    between atoms: _157  and  _159
REMARK   68  A    between atoms: _159  and  _160
REMARK   69  A    between atoms: _159  and  _162
REMARK   70  A    between atoms: _162  and  _163
REMARK   71  A    between atoms: _166  and  _168
REMARK   72  A    between atoms: _168  and  _169
REMARK   73  A    between atoms: _171  and  _173
REMARK   74  A    between atoms: _173  and  _174
REMARK   75  A    between atoms: _176  and  _178
REMARK   76  A    between atoms: _178  and  _179
REMARK   77  A    between atoms: _178  and  _181
REMARK   78  A    between atoms: _181  and  _182
REMARK   79  A    between atoms: _188  and  _190
REMARK   80  A    between atoms: _190  and  _191
REMARK   81  A    between atoms: _190  and  _193
REMARK   82  A    between atoms: _193  and  _194
REMARK   83  A    between atoms: _197  and  _199
REMARK   84  A    between atoms: _199  and  _200
REMARK   85  A    between atoms: _199  and  _202
REMARK   86  A    between atoms: _205  and  _207
REMARK   87  A    between atoms: _207  and  _208
REMARK   88  A    between atoms: _207  and  _210
REMARK   89  A    between atoms: _210  and  _211
REMARK   90  A    between atoms: _215  and  _216
REMARK   91  A    between atoms: _221  and  _223
REMARK   92  A    between atoms: _223  and  _224
REMARK   93  A    between atoms: _223  and  _226
REMARK   94  A    between atoms: _226  and  _227
REMARK   95  A    between atoms: _231  and  _232
REMARK   96  A    between atoms: _237  and  _239
REMARK   97  A    between atoms: _239  and  _240
REMARK   98  A    between atoms: _239  and  _242
REMARK   99  A    between atoms: _245  and  _247
REMARK  100  A    between atoms: _247  and  _248
REMARK  101  A    between atoms: _247  and  _250
REMARK  102  A    between atoms: _250  and  _251
REMARK  103  A    between atoms: _256  and  _258
REMARK  104  A    between atoms: _258  and  _259
REMARK  105  A    between atoms: _258  and  _261
REMARK  106  A    between atoms: _261  and  _262
REMARK  107  A    between atoms: _265  and  _267
REMARK  108  A    between atoms: _267  and  _268
REMARK  109  A    between atoms: _267  and  _270
REMARK  110  A    between atoms: _270  and  _271
REMARK  111  A    between atoms: _274  and  _276
REMARK  112  A    between atoms: _276  and  _277
REMARK  113  A    between atoms: _279  and  _281
REMARK  114  A    between atoms: _281  and  _282
REMARK  115  A    between atoms: _281  and  _284
REMARK  116  A    between atoms: _284  and  _285
REMARK  117  A    between atoms: _285  and  _286
REMARK  118  A    between atoms: _286  and  _287
REMARK  119  A    between atoms: _296  and  _298
REMARK  120  A    between atoms: _298  and  _299
REMARK  121  A    between atoms: _298  and  _301
REMARK  122  A    between atoms: _301  and  _302
REMARK  123  A    between atoms: _302  and  _303
REMARK  124  A    between atoms: _303  and  _304
REMARK  125  A    between atoms: _314  and  _315
REMARK  126  A    between atoms: _320  and  _322
REMARK  127  A    between atoms: _322  and  _323
REMARK  128  A    between atoms: _322  and  _325
REMARK  129  A    between atoms: _325  and  _326
REMARK  130  A    between atoms: _329  and  _331
REMARK  131  A    between atoms: _331  and  _332
REMARK  132  A    between atoms: _331  and  _334
REMARK  133  A    between atoms: _334  and  _335
REMARK  134  A    between atoms: _338  and  _340
REMARK  135  A    between atoms: _340  and  _341
REMARK  136  A    between atoms: _340  and  _343
REMARK  137  A    between atoms: _343  and  _344
REMARK  138  A    between atoms: _347  and  _349
REMARK  139  A    between atoms: _349  and  _350
REMARK  140  A    between atoms: _349  and  _352
REMARK  141  A    between atoms: _352  and  _353
REMARK  142  A    between atoms: _356  and  _358
REMARK  143  A    between atoms: _358  and  _359
REMARK  144  A    between atoms: _358  and  _361
REMARK  145  A    between atoms: _361  and  _362
REMARK  146  A    between atoms: _365  and  _367
REMARK  147  A    between atoms: _367  and  _368
REMARK  148  A    between atoms: _370  and  _372
REMARK  149  A    between atoms: _372  and  _373
REMARK  150  A    between atoms: _376  and  _378
REMARK  151  A    between atoms: _378  and  _379
REMARK  152  A    between atoms: _378  and  _381
REMARK  153  A    between atoms: _381  and  _382
REMARK  154  A    between atoms: _385  and  _387
REMARK  155  A    between atoms: _387  and  _388
REMARK  156  A    between atoms: _387  and  _390
REMARK  157  A    between atoms: _390  and  _391
REMARK  158  A    between atoms: _394  and  _396
REMARK  159  A    between atoms: _396  and  _397
REMARK  160  A    between atoms: _396  and  _399
REMARK  161  A    between atoms: _399  and  _400
REMARK  162  A    between atoms: _403  and  _405
REMARK  163  A    between atoms: _405  and  _406
REMARK  164  A    between atoms: _405  and  _408
REMARK  165  A    between atoms: _411  and  _413
REMARK  166  A    between atoms: _413  and  _414
REMARK  167  A    between atoms: _413  and  _416
REMARK  168  A    between atoms: _416  and  _417
REMARK  169  A    between atoms: _417  and  _418
REMARK  170  A    between atoms: _420  and  _422
REMARK  171  A    between atoms: _422  and  _423
REMARK  172  A    between atoms: _422  and  _425
REMARK  173  A    between atoms: _425  and  _426
REMARK  174  A    between atoms: _429  and  _431
REMARK  175  A    between atoms: _431  and  _432
REMARK  176  A    between atoms: _434  and  _436
REMARK  177  A    between atoms: _436  and  _437
REMARK  178  A    between atoms: _439  and  _441
REMARK  179  A    between atoms: _441  and  _442
REMARK  180  A    between atoms: _441  and  _444
REMARK  181  A    between atoms: _444  and  _445
REMARK  182  A    between atoms: _448  and  _450
REMARK  183  A    between atoms: _450  and  _451
REMARK  184  A    between atoms: _453  and  _455
REMARK  185  A    between atoms: _455  and  _456
REMARK  186  A    between atoms: _458  and  _460
REMARK  187  A    between atoms: _460  and  _461
REMARK  188  A    between atoms: _460  and  _463
REMARK  189  A    between atoms: _463  and  _464
REMARK  190  A    between atoms: _470  and  _472
REMARK  191  A    between atoms: _472  and  _473
REMARK  192  A    between atoms: _472  and  _475
REMARK  193  A    between atoms: _475  and  _476
REMARK  194  A    between atoms: _479  and  _481
REMARK  195  A    between atoms: _481  and  _482
REMARK  196  A    between atoms: _481  and  _484
REMARK  197  A    between atoms: _487  and  _489
REMARK  198  A    between atoms: _489  and  _490
REMARK  199  A    between atoms: _489  and  _492
REMARK  200  A    between atoms: _492  and  _493
REMARK  201  A    between atoms: _496  and  _498
REMARK  202  A    between atoms: _498  and  _499
REMARK  203  A    between atoms: _498  and  _501
REMARK  204  A    between atoms: _501  and  _502
REMARK  205  A    between atoms: _506  and  _507
REMARK  206  A    between atoms: _512  and  _514
REMARK  207  A    between atoms: _514  and  _515
REMARK  208  A    between atoms: _514  and  _517
REMARK  209  A    between atoms: _520  and  _522
REMARK  210  A    between atoms: _522  and  _523
REMARK  211  A    between atoms: _522  and  _525
REMARK  212  A    between atoms: _525  and  _526
REMARK  213  A    between atoms: _531  and  _533
REMARK  214  A    between atoms: _533  and  _534
REMARK  215  A    between atoms: _533  and  _536
REMARK  216  A    between atoms: _536  and  _537
REMARK  217  A    between atoms: _540  and  _542
REMARK  218  A    between atoms: _542  and  _543
REMARK  219  A    between atoms: _542  and  _545
REMARK  220  A    between atoms: _545  and  _546
REMARK  221  A    between atoms: _549  and  _551
REMARK  222  A    between atoms: _551  and  _552
REMARK  223  A    between atoms: _554  and  _556
REMARK  224  A    between atoms: _556  and  _557
REMARK  225  A    between atoms: _556  and  _559
REMARK  226  A    between atoms: _559  and  _560
REMARK  227  A    between atoms: _560  and  _561
REMARK  228  A    between atoms: _561  and  _562
REMARK                            x       y       z     vdW  Elec       q    Type
REMARK                         _______ _______ _______ _____ _____    ______ ____
ROOT
ATOM      1  O   HOH     1      -6.109   5.579  12.174  0.00  0.00    +0.000 OA
ENDROOT
TORSDOF 0
REMARK  Name = ../refined-set-2016/1dif/1dif_pocket.pdb
REMARK  228 active torsions:
REMARK  status: ('A' for Active; 'I' for Inactive)
REMARK    1  A    between atoms: _1  and  _3
REMARK    2  A    between atoms: _3  and  _4
REMARK    3  A    between atoms: _3  and  _6
REMARK    4  A    between atoms: _6  and  _7
REMARK    5  A    between atoms: _7  and  _8
REMARK    6  A    between atoms: _8  and  _9
REMARK    7  A    between atoms: _19  and  _20
REMARK    8  A    between atoms: _25  and  _27
REMARK    9  A    between atoms: _27  and  _28
REMARK   10  A    between atoms: _27  and  _30
REMARK   11  A    between atoms: _30  and  _31
REMARK   12  A    between atoms: _34  and  _36
REMARK   13  A    between atoms: _36  and  _37
REMARK   14  A    between atoms: _36  and  _39
REMARK   15  A    between atoms: _39  and  _40
REMARK   16  A    between atoms: _43  and  _45
REMARK   17  A    between atoms: _45  and  _46
REMARK   18  A    between atoms: _45  and  _48
REMARK   19  A    between atoms: _48  and  _49
REMARK   20  A    between atoms: _52  and  _54
REMARK   21  A    between atoms: _54  and  _55
REMARK   22  A    between atoms: _54  and  _57
REMARK   23  A    between atoms: _57  and  _58
REMARK   24  A    between atoms: _61  and  _63
REMARK   25  A    between atoms: _63  and  _64
REMARK   26  A    between atoms: _63  and  _66
REMARK   27  A    between atoms: _66  and  _67
REMARK   28  A    between atoms: _70  and  _72
REMARK   29  A    between atoms: _72  and  _73
REMARK   30  A    between atoms: _75  and  _77
REMARK   31  A    between atoms: _77  and  _78
REMARK   32  A    between atoms: _81  and  _83
REMARK   33  A    between atoms: _83  and  _84
REMARK   34  A    between atoms: _83  and  _86
REMARK   35  A    between atoms: _86  and  _87
REMARK   36  A    between atoms: _90  and  _92
REMARK   37  A    between atoms: _92  and  _93
REMARK   38  A    between atoms: _92  and  _95
REMARK   39  A    between atoms: _95  and  _96
REMARK   40  A    between atoms: _99  and  _101
REMARK   41  A    between atoms: _101  and  _102
REMARK   42  A    between atoms: _101  and  _104
REMARK   43  A    between atoms: _104  and  _105
REMARK   44  A    between atoms: _108  and  _110
REMARK   45  A    between atoms: _110  and  _111
REMARK   46  A    between atoms: _110  and  _113
REMARK   47  A    between atoms: _116  and  _118
REMARK   48  A    between atoms: _118  and  _119
REMARK   49  A    between atoms: _118  and  _121
REMARK   50  A    between atoms: _121  and  _122
REMARK   51  A    between atoms: _122  and  _123
REMARK   52  A    between atoms: _123  and  _124
REMARK   53  A    between atoms: _124  and  _125
REMARK   54  A    between atoms: _129  and  _131
REMARK   55  A    between atoms: _131  and  _132
REMARK   56  A    between atoms: _131  and  _134
REMARK   57  A    between atoms: _134  and  _135
REMARK   58  A    between atoms: _135  and  _136
REMARK   59  A    between atoms: _138  and  _140
REMARK   60  A    between atoms: _140  and  _141
REMARK   61  A    between atoms: _140  and  _143
REMARK   62  A    between atoms: _143  and  _144
REMARK   63  A    between atoms: _147  and  _149
REMARK   64  A    between atoms: _149  and  _150
REMARK   65  A    between atoms: _152  and  _154
REMARK   66  A    between atoms: _154  and  _155
REMARK   67  A    between atoms: _157  and  _159
REMARK   68  A    between atoms: _159  and  _160
REMARK   69  A    between atoms: _159  and  _162
REMARK   70  A    between atoms: _162  and  _163
REMARK   71  A    between atoms: _166  and  _168
REMARK   72  A    between atoms: _168  and  _169
REMARK   73  A    between atoms: _171  and  _173
REMARK   74  A    between atoms: _173  and  _174
REMARK   75  A    between atoms: _176  and  _178
REMARK   76  A    between atoms: _178  and  _179
REMARK   77  A    between atoms: _178  and  _181
REMARK   78  A    between atoms: _181  and  _182
REMARK   79  A    between atoms: _188  and  _190
REMARK   80  A    between atoms: _190  and  _191
REMARK   81  A    between atoms: _190  and  _193
REMARK   82  A    between atoms: _193  and  _194
REMARK   83  A    between atoms: _197  and  _199
REMARK   84  A    between atoms: _199  and  _200
REMARK   85  A    between atoms: _199  and  _202
REMARK   86  A    between atoms: _205  and  _207
REMARK   87  A    between atoms: _207  and  _208
REMARK   88  A    between atoms: _207  and  _210
REMARK   89  A    between atoms: _210  and  _211
REMARK   90  A    between atoms: _215  and  _216
REMARK   91  A    between atoms: _221  and  _223
REMARK   92  A    between atoms: _223  and  _224
REMARK   93  A    between atoms: _223  and  _226
REMARK   94  A    between atoms: _226  and  _227
REMARK   95  A    between atoms: _231  and  _232
REMARK   96  A    between atoms: _237  and  _239
REMARK   97  A    between atoms: _239  and  _240
REMARK   98  A    between atoms: _239  and  _242
REMARK   99  A    between atoms: _245  and  _247
REMARK  100  A    between atoms: _247  and  _248
REMARK  101  A    between atoms: _247  and  _250
REMARK  102  A    between atoms: _250  and  _251
REMARK  103  A    between atoms: _256  and  _258
REMARK  104  A    between atoms: _258  and  _259
REMARK  105  A    between atoms: _258  and  _261
REMARK  106  A    between atoms: _261  and  _262
REMARK  107  A    between atoms: _265  and  _267
REMARK  108  A    between atoms: _267  and  _268
REMARK  109  A    between atoms: _267  and  _270
REMARK  110  A    between atoms: _270  and  _271
REMARK  111  A    between atoms: _274  and  _276
REMARK  112  A    between atoms: _276  and  _277
REMARK  113  A    between atoms: _279  and  _281
REMARK  114  A    between atoms: _281  and  _282
REMARK  115  A    between atoms: _281  and  _284
REMARK  116  A    between atoms: _284  and  _285
REMARK  117  A    between atoms: _285  and  _286
REMARK  118  A    between atoms: _286  and  _287
REMARK  119  A    between atoms: _296  and  _298
REMARK  120  A    between atoms: _298  and  _299
REMARK  121  A    between atoms: _298  and  _301
REMARK  122  A    between atoms: _301  and  _302
REMARK  123  A    between atoms: _302  and  _303
REMARK  124  A    between atoms: _303  and  _304
REMARK  125  A    between atoms: _314  and  _315
REMARK  126  A    between atoms: _320  and  _322
REMARK  127  A    between atoms: _322  and  _323
REMARK  128  A    between atoms: _322  and  _325
REMARK  129  A    between atoms: _325  and  _326
REMARK  130  A    between atoms: _329  and  _331
REMARK  131  A    between atoms: _331  and  _332
REMARK  132  A    between atoms: _331  and  _334
REMARK  133  A    between atoms: _334  and  _335
REMARK  134  A    between atoms: _338  and  _340
REMARK  135  A    between atoms: _340  and  _341
REMARK  136  A    between atoms: _340  and  _343
REMARK  137  A    between atoms: _343  and  _344
REMARK  138  A    between atoms: _347  and  _349
REMARK  139  A    between atoms: _349  and  _350
REMARK  140  A    between atoms: _349  and  _352
REMARK  141  A    between atoms: _352  and  _353
REMARK  142  A    between atoms: _356  and  _358
REMARK  143  A    between atoms: _358  and  _359
REMARK  144  A    between atoms: _358  and  _361
REMARK  145  A    between atoms: _361  and  _362
REMARK  146  A    between atoms: _365  and  _367
REMARK  147  A    between atoms: _367  and  _368
REMARK  148  A    between atoms: _370  and  _372
REMARK  149  A    between atoms: _372  and  _373
REMARK  150  A    between atoms: _376  and  _378
REMARK  151  A    between atoms: _378  and  _379
REMARK  152  A    between atoms: _378  and  _381
REMARK  153  A    between atoms: _381  and  _382
REMARK  154  A    between atoms: _385  and  _387
REMARK  155  A    between atoms: _387  and  _388
REMARK  156  A    between atoms: _387  and  _390
REMARK  157  A    between atoms: _390  and  _391
REMARK  158  A    between atoms: _394  and  _396
REMARK  159  A    between atoms: _396  and  _397
REMARK  160  A    between atoms: _396  and  _399
REMARK  161  A    between atoms: _399  and  _400
REMARK  162  A    between atoms: _403  and  _405
REMARK  163  A    between atoms: _405  and  _406
REMARK  164  A    between atoms: _405  and  _408
REMARK  165  A    between atoms: _411  and  _413
REMARK  166  A    between atoms: _413  and  _414
REMARK  167  A    between atoms: _413  and  _416
REMARK  168  A    between atoms: _416  and  _417
REMARK  169  A    between atoms: _417  and  _418
REMARK  170  A    between atoms: _420  and  _422
REMARK  171  A    between atoms: _422  and  _423
REMARK  172  A    between atoms: _422  and  _425
REMARK  173  A    between atoms: _425  and  _426
REMARK  174  A    between atoms: _429  and  _431
REMARK  175  A    between atoms: _431  and  _432
REMARK  176  A    between atoms: _434  and  _436
REMARK  177  A    between atoms: _436  and  _437
REMARK  178  A    between atoms: _439  and  _441
REMARK  179  A    between atoms: _441  and  _442
REMARK  180  A    between atoms: _441  and  _444
REMARK  181  A    between atoms: _444  and  _445
REMARK  182  A    between atoms: _448  and  _450
REMARK  183  A    between atoms: _450  and  _451
REMARK  184  A    between atoms: _453  and  _455
REMARK  185  A    between atoms: _455  and  _456
REMARK  186  A    between atoms: _458  and  _460
REMARK  187  A    between atoms: _460  and  _461
REMARK  188  A    between atoms: _460  and  _463
REMARK  189  A    between atoms: _463  and  _464
REMARK  190  A    between atoms: _470  and  _472
REMARK  191  A    between atoms: _472  and  _473
REMARK  192  A    between atoms: _472  and  _475
REMARK  193  A    between atoms: _475  and  _476
REMARK  194  A    between atoms: _479  and  _481
REMARK  195  A    between atoms: _481  and  _482
REMARK  196  A    between atoms: _481  and  _484
REMARK  197  A    between atoms: _487  and  _489
REMARK  198  A    between atoms: _489  and  _490
REMARK  199  A    between atoms: _489  and  _492
REMARK  200  A    between atoms: _492  and  _493
REMARK  201  A    between atoms: _496  and  _498
REMARK  202  A    between atoms: _498  and  _499
REMARK  203  A    between atoms: _498  and  _501
REMARK  204  A    between atoms: _501  and  _502
REMARK  205  A    between atoms: _506  and  _507
REMARK  206  A    between atoms: _512  and  _514
REMARK  207  A    between atoms: _514  and  _515
REMARK  208  A    between atoms: _514  and  _517
REMARK  209  A    between atoms: _520  and  _522
REMARK  210  A    between atoms: _522  and  _523
REMARK  211  A    between atoms: _522  and  _525
REMARK  212  A    between atoms: _525  and  _526
REMARK  213  A    between atoms: _531  and  _533
REMARK  214  A    between atoms: _533  and  _534
REMARK  215  A    between atoms: _533  and  _536
REMARK  216  A    between atoms: _536  and  _537
REMARK  217  A    between atoms: _540  and  _542
REMARK  218  A    between atoms: _542  and  _543
REMARK  219  A    between atoms: _542  and  _545
REMARK  220  A    between atoms: _545  and  _546
REMARK  221  A    between atoms: _549  and  _551
REMARK  222  A    between atoms: _551  and  _552
REMARK  223  A    between atoms: _554  and  _556
REMARK  224  A    between atoms: _556  and  _557
REMARK  225  A    between atoms: _556  and  _559
REMARK  226  A    between atoms: _559  and  _560
REMARK  227  A    between atoms: _560  and  _561
REMARK  228  A    between atoms: _561  and  _562
REMARK                            x       y       z     vdW  Elec       q    Type
REMARK                         _______ _______ _______ _____ _____    ______ ____
ROOT
ATOM      1  O   HOH     1       4.862   7.233  15.007  0.00  0.00    +0.000 OA
ENDROOT
TORSDOF 0
REMARK  Name = ../refined-set-2016/1dif/1dif_pocket.pdb
REMARK  228 active torsions:
REMARK  status: ('A' for Active; 'I' for Inactive)
REMARK    1  A    between atoms: _1  and  _3
REMARK    2  A    between atoms: _3  and  _4
REMARK    3  A    between atoms: _3  and  _6
REMARK    4  A    between atoms: _6  and  _7
REMARK    5  A    between atoms: _7  and  _8
REMARK    6  A    between atoms: _8  and  _9
REMARK    7  A    between atoms: _19  and  _20
REMARK    8  A    between atoms: _25  and  _27
REMARK    9  A    between atoms: _27  and  _28
REMARK   10  A    between atoms: _27  and  _30
REMARK   11  A    between atoms: _30  and  _31
REMARK   12  A    between atoms: _34  and  _36
REMARK   13  A    between atoms: _36  and  _37
REMARK   14  A    between atoms: _36  and  _39
REMARK   15  A    between atoms: _39  and  _40
REMARK   16  A    between atoms: _43  and  _45
REMARK   17  A    between atoms: _45  and  _46
REMARK   18  A    between atoms: _45  and  _48
REMARK   19  A    between atoms: _48  and  _49
REMARK   20  A    between atoms: _52  and  _54
REMARK   21  A    between atoms: _54  and  _55
REMARK   22  A    between atoms: _54  and  _57
REMARK   23  A    between atoms: _57  and  _58
REMARK   24  A    between atoms: _61  and  _63
REMARK   25  A    between atoms: _63  and  _64
REMARK   26  A    between atoms: _63  and  _66
REMARK   27  A    between atoms: _66  and  _67
REMARK   28  A    between atoms: _70  and  _72
REMARK   29  A    between atoms: _72  and  _73
REMARK   30  A    between atoms: _75  and  _77
REMARK   31  A    between atoms: _77  and  _78
REMARK   32  A    between atoms: _81  and  _83
REMARK   33  A    between atoms: _83  and  _84
REMARK   34  A    between atoms: _83  and  _86
REMARK   35  A    between atoms: _86  and  _87
REMARK   36  A    between atoms: _90  and  _92
REMARK   37  A    between atoms: _92  and  _93
REMARK   38  A    between atoms: _92  and  _95
REMARK   39  A    between atoms: _95  and  _96
REMARK   40  A    between atoms: _99  and  _101
REMARK   41  A    between atoms: _101  and  _102
REMARK   42  A    between atoms: _101  and  _104
REMARK   43  A    between atoms: _104  and  _105
REMARK   44  A    between atoms: _108  and  _110
REMARK   45  A    between atoms: _110  and  _111
REMARK   46  A    between atoms: _110  and  _113
REMARK   47  A    between atoms: _116  and  _118
REMARK   48  A    between atoms: _118  and  _119
REMARK   49  A    between atoms: _118  and  _121
REMARK   50  A    between atoms: _121  and  _122
REMARK   51  A    between atoms: _122  and  _123
REMARK   52  A    between atoms: _123  and  _124
REMARK   53  A    between atoms: _124  and  _125
REMARK   54  A    between atoms: _129  and  _131
REMARK   55  A    between atoms: _131  and  _132
REMARK   56  A    between atoms: _131  and  _134
REMARK   57  A    between atoms: _134  and  _135
REMARK   58  A    between atoms: _135  and  _136
REMARK   59  A    between atoms: _138  and  _140
REMARK   60  A    between atoms: _140  and  _141
REMARK   61  A    between atoms: _140  and  _143
REMARK   62  A    between atoms: _143  and  _144
REMARK   63  A    between atoms: _147  and  _149
REMARK   64  A    between atoms: _149  and  _150
REMARK   65  A    between atoms: _152  and  _154
REMARK   66  A    between atoms: _154  and  _155
REMARK   67  A    between atoms: _157  and  _159
REMARK   68  A    between atoms: _159  and  _160
REMARK   69  A    between atoms: _159  and  _162
REMARK   70  A    between atoms: _162  and  _163
REMARK   71  A    between atoms: _166  and  _168
REMARK   72  A    between atoms: _168  and  _169
REMARK   73  A    between atoms: _171  and  _173
REMARK   74  A    between atoms: _173  and  _174
REMARK   75  A    between atoms: _176  and  _178
REMARK   76  A    between atoms: _178  and  _179
REMARK   77  A    between atoms: _178  and  _181
REMARK   78  A    between atoms: _181  and  _182
REMARK   79  A    between atoms: _188  and  _190
REMARK   80  A    between atoms: _190  and  _191
REMARK   81  A    between atoms: _190  and  _193
REMARK   82  A    between atoms: _193  and  _194
REMARK   83  A    between atoms: _197  and  _199
REMARK   84  A    between atoms: _199  and  _200
REMARK   85  A    between atoms: _199  and  _202
REMARK   86  A    between atoms: _205  and  _207
REMARK   87  A    between atoms: _207  and  _208
REMARK   88  A    between atoms: _207  and  _210
REMARK   89  A    between atoms: _210  and  _211
REMARK   90  A    between atoms: _215  and  _216
REMARK   91  A    between atoms: _221  and  _223
REMARK   92  A    between atoms: _223  and  _224
REMARK   93  A    between atoms: _223  and  _226
REMARK   94  A    between atoms: _226  and  _227
REMARK   95  A    between atoms: _231  and  _232
REMARK   96  A    between atoms: _237  and  _239
REMARK   97  A    between atoms: _239  and  _240
REMARK   98  A    between atoms: _239  and  _242
REMARK   99  A    between atoms: _245  and  _247
REMARK  100  A    between atoms: _247  and  _248
REMARK  101  A    between atoms: _247  and  _250
REMARK  102  A    between atoms: _250  and  _251
REMARK  103  A    between atoms: _256  and  _258
REMARK  104  A    between atoms: _258  and  _259
REMARK  105  A    between atoms: _258  and  _261
REMARK  106  A    between atoms: _261  and  _262
REMARK  107  A    between atoms: _265  and  _267
REMARK  108  A    between atoms: _267  and  _268
REMARK  109  A    between atoms: _267  and  _270
REMARK  110  A    between atoms: _270  and  _271
REMARK  111  A    between atoms: _274  and  _276
REMARK  112  A    between atoms: _276  and  _277
REMARK  113  A    between atoms: _279  and  _281
REMARK  114  A    between atoms: _281  and  _282
REMARK  115  A    between atoms: _281  and  _284
REMARK  116  A    between atoms: _284  and  _285
REMARK  117  A    between atoms: _285  and  _286
REMARK  118  A    between atoms: _286  and  _287
REMARK  119  A    between atoms: _296  and  _298
REMARK  120  A    between atoms: _298  and  _299
REMARK  121  A    between atoms: _298  and  _301
REMARK  122  A    between atoms: _301  and  _302
REMARK  123  A    between atoms: _302  and  _303
REMARK  124  A    between atoms: _303  and  _304
REMARK  125  A    between atoms: _314  and  _315
REMARK  126  A    between atoms: _320  and  _322
REMARK  127  A    between atoms: _322  and  _323
REMARK  128  A    between atoms: _322  and  _325
REMARK  129  A    between atoms: _325  and  _326
REMARK  130  A    between atoms: _329  and  _331
REMARK  131  A    between atoms: _331  and  _332
REMARK  132  A    between atoms: _331  and  _334
REMARK  133  A    between atoms: _334  and  _335
REMARK  134  A    between atoms: _338  and  _340
REMARK  135  A    between atoms: _340  and  _341
REMARK  136  A    between atoms: _340  and  _343
REMARK  137  A    between atoms: _343  and  _344
REMARK  138  A    between atoms: _347  and  _349
REMARK  139  A    between atoms: _349  and  _350
REMARK  140  A    between atoms: _349  and  _352
REMARK  141  A    between atoms: _352  and  _353
REMARK  142  A    between atoms: _356  and  _358
REMARK  143  A    between atoms: _358  and  _359
REMARK  144  A    between atoms: _358  and  _361
REMARK  145  A    between atoms: _361  and  _362
REMARK  146  A    between atoms: _365  and  _367
REMARK  147  A    between atoms: _367  and  _368
REMARK  148  A    between atoms: _370  and  _372
REMARK  149  A    between atoms: _372  and  _373
REMARK  150  A    between atoms: _376  and  _378
REMARK  151  A    between atoms: _378  and  _379
REMARK  152  A    between atoms: _378  and  _381
REMARK  153  A    between atoms: _381  and  _382
REMARK  154  A    between atoms: _385  and  _387
REMARK  155  A    between atoms: _387  and  _388
REMARK  156  A    between atoms: _387  and  _390
REMARK  157  A    between atoms: _390  and  _391
REMARK  158  A    between atoms: _394  and  _396
REMARK  159  A    between atoms: _396  and  _397
REMARK  160  A    between atoms: _396  and  _399
REMARK  161  A    between atoms: _399  and  _400
REMARK  162  A    between atoms: _403  and  _405
REMARK  163  A    between atoms: _405  and  _406
REMARK  164  A    between atoms: _405  and  _408
REMARK  165  A    between atoms: _411  and  _413
REMARK  166  A    between atoms: _413  and  _414
REMARK  167  A    between atoms: _413  and  _416
REMARK  168  A    between atoms: _416  and  _417
REMARK  169  A    between atoms: _417  and  _418
REMARK  170  A    between atoms: _420  and  _422
REMARK  171  A    between atoms: _422  and  _423
REMARK  172  A    between atoms: _422  and  _425
REMARK  173  A    between atoms: _425  and  _426
REMARK  174  A    between atoms: _429  and  _431
REMARK  175  A    between atoms: _431  and  _432
REMARK  176  A    between atoms: _434  and  _436
REMARK  177  A    between atoms: _436  and  _437
REMARK  178  A    between atoms: _439  and  _441
REMARK  179  A    between atoms: _441  and  _442
REMARK  180  A    between atoms: _441  and  _444
REMARK  181  A    between atoms: _444  and  _445
REMARK  182  A    between atoms: _448  and  _450
REMARK  183  A    between atoms: _450  and  _451
REMARK  184  A    between atoms: _453  and  _455
REMARK  185  A    between atoms: _455  and  _456
REMARK  186  A    between atoms: _458  and  _460
REMARK  187  A    between atoms: _460  and  _461
REMARK  188  A    between atoms: _460  and  _463
REMARK  189  A    between atoms: _463  and  _464
REMARK  190  A    between atoms: _470  and  _472
REMARK  191  A    between atoms: _472  and  _473
REMARK  192  A    between atoms: _472  and  _475
REMARK  193  A    between atoms: _475  and  _476
REMARK  194  A    between atoms: _479  and  _481
REMARK  195  A    between atoms: _481  and  _482
REMARK  196  A    between atoms: _481  and  _484
REMARK  197  A    between atoms: _487  and  _489
REMARK  198  A    between atoms: _489  and  _490
REMARK  199  A    between atoms: _489  and  _492
REMARK  200  A    between atoms: _492  and  _493
REMARK  201  A    between atoms: _496  and  _498
REMARK  202  A    between atoms: _498  and  _499
REMARK  203  A    between atoms: _498  and  _501
REMARK  204  A    between atoms: _501  and  _502
REMARK  205  A    between atoms: _506  and  _507
REMARK  206  A    between atoms: _512  and  _514
REMARK  207  A    between atoms: _514  and  _515
REMARK  208  A    between atoms: _514  and  _517
REMARK  209  A    between atoms: _520  and  _522
REMARK  210  A    between atoms: _522  and  _523
REMARK  211  A    between atoms: _522  and  _525
REMARK  212  A    between atoms: _525  and  _526
REMARK  213  A    between atoms: _531  and  _533
REMARK  214  A    between atoms: _533  and  _534
REMARK  215  A    between atoms: _533  and  _536
REMARK  216  A    between atoms: _536  and  _537
REMARK  217  A    between atoms: _540  and  _542
REMARK  218  A    between atoms: _542  and  _543
REMARK  219  A    between atoms: _542  and  _545
REMARK  220  A    between atoms: _545  and  _546
REMARK  221  A    between atoms: _549  and  _551
REMARK  222  A    between atoms: _551  and  _552
REMARK  223  A    between atoms: _554  and  _556
REMARK  224  A    between atoms: _556  and  _557
REMARK  225  A    between atoms: _556  and  _559
REMARK  226  A    between atoms: _559  and  _560
REMARK  227  A    between atoms: _560  and  _561
REMARK  228  A    between atoms: _561  and  _562
REMARK                            x       y       z     vdW  Elec       q    Type
REMARK                         _______ _______ _______ _____ _____    ______ ____
ROOT
ATOM      1  O   HOH     1      10.439  -3.760   5.715  0.00  0.00    +0.000 OA
ENDROOT
TORSDOF 0
REMARK  Name = ../refined-set-2016/1dif/1dif_pocket.pdb
REMARK  228 active torsions:
REMARK  status: ('A' for Active; 'I' for Inactive)
REMARK    1  A    between atoms: _1  and  _3
REMARK    2  A    between atoms: _3  and  _4
REMARK    3  A    between atoms: _3  and  _6
REMARK    4  A    between atoms: _6  and  _7
REMARK    5  A    between atoms: _7  and  _8
REMARK    6  A    between atoms: _8  and  _9
REMARK    7  A    between atoms: _19  and  _20
REMARK    8  A    between atoms: _25  and  _27
REMARK    9  A    between atoms: _27  and  _28
REMARK   10  A    between atoms: _27  and  _30
REMARK   11  A    between atoms: _30  and  _31
REMARK   12  A    between atoms: _34  and  _36
REMARK   13  A    between atoms: _36  and  _37
REMARK   14  A    between atoms: _36  and  _39
REMARK   15  A    between atoms: _39  and  _40
REMARK   16  A    between atoms: _43  and  _45
REMARK   17  A    between atoms: _45  and  _46
REMARK   18  A    between atoms: _45  and  _48
REMARK   19  A    between atoms: _48  and  _49
REMARK   20  A    between atoms: _52  and  _54
REMARK   21  A    between atoms: _54  and  _55
REMARK   22  A    between atoms: _54  and  _57
REMARK   23  A    between atoms: _57  and  _58
REMARK   24  A    between atoms: _61  and  _63
REMARK   25  A    between atoms: _63  and  _64
REMARK   26  A    between atoms: _63  and  _66
REMARK   27  A    between atoms: _66  and  _67
REMARK   28  A    between atoms: _70  and  _72
REMARK   29  A    between atoms: _72  and  _73
REMARK   30  A    between atoms: _75  and  _77
REMARK   31  A    between atoms: _77  and  _78
REMARK   32  A    between atoms: _81  and  _83
REMARK   33  A    between atoms: _83  and  _84
REMARK   34  A    between atoms: _83  and  _86
REMARK   35  A    between atoms: _86  and  _87
REMARK   36  A    between atoms: _90  and  _92
REMARK   37  A    between atoms: _92  and  _93
REMARK   38  A    between atoms: _92  and  _95
REMARK   39  A    between atoms: _95  and  _96
REMARK   40  A    between atoms: _99  and  _101
REMARK   41  A    between atoms: _101  and  _102
REMARK   42  A    between atoms: _101  and  _104
REMARK   43  A    between atoms: _104  and  _105
REMARK   44  A    between atoms: _108  and  _110
REMARK   45  A    between atoms: _110  and  _111
REMARK   46  A    between atoms: _110  and  _113
REMARK   47  A    between atoms: _116  and  _118
REMARK   48  A    between atoms: _118  and  _119
REMARK   49  A    between atoms: _118  and  _121
REMARK   50  A    between atoms: _121  and  _122
REMARK   51  A    between atoms: _122  and  _123
REMARK   52  A    between atoms: _123  and  _124
REMARK   53  A    between atoms: _124  and  _125
REMARK   54  A    between atoms: _129  and  _131
REMARK   55  A    between atoms: _131  and  _132
REMARK   56  A    between atoms: _131  and  _134
REMARK   57  A    between atoms: _134  and  _135
REMARK   58  A    between atoms: _135  and  _136
REMARK   59  A    between atoms: _138  and  _140
REMARK   60  A    between atoms: _140  and  _141
REMARK   61  A    between atoms: _140  and  _143
REMARK   62  A    between atoms: _143  and  _144
REMARK   63  A    between atoms: _147  and  _149
REMARK   64  A    between atoms: _149  and  _150
REMARK   65  A    between atoms: _152  and  _154
REMARK   66  A    between atoms: _154  and  _155
REMARK   67  A    between atoms: _157  and  _159
REMARK   68  A    between atoms: _159  and  _160
REMARK   69  A    between atoms: _159  and  _162
REMARK   70  A    between atoms: _162  and  _163
REMARK   71  A    between atoms: _166  and  _168
REMARK   72  A    between atoms: _168  and  _169
REMARK   73  A    between atoms: _171  and  _173
REMARK   74  A    between atoms: _173  and  _174
REMARK   75  A    between atoms: _176  and  _178
REMARK   76  A    between atoms: _178  and  _179
REMARK   77  A    between atoms: _178  and  _181
REMARK   78  A    between atoms: _181  and  _182
REMARK   79  A    between atoms: _188  and  _190
REMARK   80  A    between atoms: _190  and  _191
REMARK   81  A    between atoms: _190  and  _193
REMARK   82  A    between atoms: _193  and  _194
REMARK   83  A    between atoms: _197  and  _199
REMARK   84  A    between atoms: _199  and  _200
REMARK   85  A    between atoms: _199  and  _202
REMARK   86  A    between atoms: _205  and  _207
REMARK   87  A    between atoms: _207  and  _208
REMARK   88  A    between atoms: _207  and  _210
REMARK   89  A    between atoms: _210  and  _211
REMARK   90  A    between atoms: _215  and  _216
REMARK   91  A    between atoms: _221  and  _223
REMARK   92  A    between atoms: _223  and  _224
REMARK   93  A    between atoms: _223  and  _226
REMARK   94  A    between atoms: _226  and  _227
REMARK   95  A    between atoms: _231  and  _232
REMARK   96  A    between atoms: _237  and  _239
REMARK   97  A    between atoms: _239  and  _240
REMARK   98  A    between atoms: _239  and  _242
REMARK   99  A    between atoms: _245  and  _247
REMARK  100  A    between atoms: _247  and  _248
REMARK  101  A    between atoms: _247  and  _250
REMARK  102  A    between atoms: _250  and  _251
REMARK  103  A    between atoms: _256  and  _258
REMARK  104  A    between atoms: _258  and  _259
REMARK  105  A    between atoms: _258  and  _261
REMARK  106  A    between atoms: _261  and  _262
REMARK  107  A    between atoms: _265  and  _267
REMARK  108  A    between atoms: _267  and  _268
REMARK  109  A    between atoms: _267  and  _270
REMARK  110  A    between atoms: _270  and  _271
REMARK  111  A    between atoms: _274  and  _276
REMARK  112  A    between atoms: _276  and  _277
REMARK  113  A    between atoms: _279  and  _281
REMARK  114  A    between atoms: _281  and  _282
REMARK  115  A    between atoms: _281  and  _284
REMARK  116  A    between atoms: _284  and  _285
REMARK  117  A    between atoms: _285  and  _286
REMARK  118  A    between atoms: _286  and  _287
REMARK  119  A    between atoms: _296  and  _298
REMARK  120  A    between atoms: _298  and  _299
REMARK  121  A    between atoms: _298  and  _301
REMARK  122  A    between atoms: _301  and  _302
REMARK  123  A    between atoms: _302  and  _303
REMARK  124  A    between atoms: _303  and  _304
REMARK  125  A    between atoms: _314  and  _315
REMARK  126  A    between atoms: _320  and  _322
REMARK  127  A    between atoms: _322  and  _323
REMARK  128  A    between atoms: _322  and  _325
REMARK  129  A    between atoms: _325  and  _326
REMARK  130  A    between atoms: _329  and  _331
REMARK  131  A    between atoms: _331  and  _332
REMARK  132  A    between atoms: _331  and  _334
REMARK  133  A    between atoms: _334  and  _335
REMARK  134  A    between atoms: _338  and  _340
REMARK  135  A    between atoms: _340  and  _341
REMARK  136  A    between atoms: _340  and  _343
REMARK  137  A    between atoms: _343  and  _344
REMARK  138  A    between atoms: _347  and  _349
REMARK  139  A    between atoms: _349  and  _350
REMARK  140  A    between atoms: _349  and  _352
REMARK  141  A    between atoms: _352  and  _353
REMARK  142  A    between atoms: _356  and  _358
REMARK  143  A    between atoms: _358  and  _359
REMARK  144  A    between atoms: _358  and  _361
REMARK  145  A    between atoms: _361  and  _362
REMARK  146  A    between atoms: _365  and  _367
REMARK  147  A    between atoms: _367  and  _368
REMARK  148  A    between atoms: _370  and  _372
REMARK  149  A    between atoms: _372  and  _373
REMARK  150  A    between atoms: _376  and  _378
REMARK  151  A    between atoms: _378  and  _379
REMARK  152  A    between atoms: _378  and  _381
REMARK  153  A    between atoms: _381  and  _382
REMARK  154  A    between atoms: _385  and  _387
REMARK  155  A    between atoms: _387  and  _388
REMARK  156  A    between atoms: _387  and  _390
REMARK  157  A    between atoms: _390  and  _391
REMARK  158  A    between atoms: _394  and  _396
REMARK  159  A    between atoms: _396  and  _397
REMARK  160  A    between atoms: _396  and  _399
REMARK  161  A    between atoms: _399  and  _400
REMARK  162  A    between atoms: _403  and  _405
REMARK  163  A    between atoms: _405  and  _406
REMARK  164  A    between atoms: _405  and  _408
REMARK  165  A    between atoms: _411  and  _413
REMARK  166  A    between atoms: _413  and  _414
REMARK  167  A    between atoms: _413  and  _416
REMARK  168  A    between atoms: _416  and  _417
REMARK  169  A    between atoms: _417  and  _418
REMARK  170  A    between atoms: _420  and  _422
REMARK  171  A    between atoms: _422  and  _423
REMARK  172  A    between atoms: _422  and  _425
REMARK  173  A    between atoms: _425  and  _426
REMARK  174  A    between atoms: _429  and  _431
REMARK  175  A    between atoms: _431  and  _432
REMARK  176  A    between atoms: _434  and  _436
REMARK  177  A    between atoms: _436  and  _437
REMARK  178  A    between atoms: _439  and  _441
REMARK  179  A    between atoms: _441  and  _442
REMARK  180  A    between atoms: _441  and  _444
REMARK  181  A    between atoms: _444  and  _445
REMARK  182  A    between atoms: _448  and  _450
REMARK  183  A    between atoms: _450  and  _451
REMARK  184  A    between atoms: _453  and  _455
REMARK  185  A    between atoms: _455  and  _456
REMARK  186  A    between atoms: _458  and  _460
REMARK  187  A    between atoms: _460  and  _461
REMARK  188  A    between atoms: _460  and  _463
REMARK  189  A    between atoms: _463  and  _464
REMARK  190  A    between atoms: _470  and  _472
REMARK  191  A    between atoms: _472  and  _473
REMARK  192  A    between atoms: _472  and  _475
REMARK  193  A    between atoms: _475  and  _476
REMARK  194  A    between atoms: _479  and  _481
REMARK  195  A    between atoms: _481  and  _482
REMARK  196  A    between atoms: _481  and  _484
REMARK  197  A    between atoms: _487  and  _489
REMARK  198  A    between atoms: _489  and  _490
REMARK  199  A    between atoms: _489  and  _492
REMARK  200  A    between atoms: _492  and  _493
REMARK  201  A    between atoms: _496  and  _498
REMARK  202  A    between atoms: _498  and  _499
REMARK  203  A    between atoms: _498  and  _501
REMARK  204  A    between atoms: _501  and  _502
REMARK  205  A    between atoms: _506  and  _507
REMARK  206  A    between atoms: _512  and  _514
REMARK  207  A    between atoms: _514  and  _515
REMARK  208  A    between atoms: _514  and  _517
REMARK  209  A    between atoms: _520  and  _522
REMARK  210  A    between atoms: _522  and  _523
REMARK  211  A    between atoms: _522  and  _525
REMARK  212  A    between atoms: _525  and  _526
REMARK  213  A    between atoms: _531  and  _533
REMARK  214  A    between atoms: _533  and  _534
REMARK  215  A    between atoms: _533  and  _536
REMARK  216  A    between atoms: _536  and  _537
REMARK  217  A    between atoms: _540  and  _542
REMARK  218  A    between atoms: _542  and  _543
REMARK  219  A    between atoms: _542  and  _545
REMARK  220  A    between atoms: _545  and  _546
REMARK  221  A    between atoms: _549  and  _551
REMARK  222  A    between atoms: _551  and  _552
REMARK  223  A    between atoms: _554  and  _556
REMARK  224  A    between atoms: _556  and  _557
REMARK  225  A    between atoms: _556  and  _559
REMARK  226  A    between atoms: _559  and  _560
REMARK  227  A    between atoms: _560  and  _561
REMARK  228  A    between atoms: _561  and  _562
REMARK                            x       y       z     vdW  Elec       q    Type
REMARK                         _______ _______ _______ _____ _____    ______ ____
ROOT
ATOM      1  O   HOH     1       1.903   3.090   5.915  0.00  0.00    +0.000 OA
ENDROOT
TORSDOF 0
REMARK  Name = ../refined-set-2016/1dif/1dif_pocket.pdb
REMARK  228 active torsions:
REMARK  status: ('A' for Active; 'I' for Inactive)
REMARK    1  A    between atoms: _1  and  _3
REMARK    2  A    between atoms: _3  and  _4
REMARK    3  A    between atoms: _3  and  _6
REMARK    4  A    between atoms: _6  and  _7
REMARK    5  A    between atoms: _7  and  _8
REMARK    6  A    between atoms: _8  and  _9
REMARK    7  A    between atoms: _19  and  _20
REMARK    8  A    between atoms: _25  and  _27
REMARK    9  A    between atoms: _27  and  _28
REMARK   10  A    between atoms: _27  and  _30
REMARK   11  A    between atoms: _30  and  _31
REMARK   12  A    between atoms: _34  and  _36
REMARK   13  A    between atoms: _36  and  _37
REMARK   14  A    between atoms: _36  and  _39
REMARK   15  A    between atoms: _39  and  _40
REMARK   16  A    between atoms: _43  and  _45
REMARK   17  A    between atoms: _45  and  _46
REMARK   18  A    between atoms: _45  and  _48
REMARK   19  A    between atoms: _48  and  _49
REMARK   20  A    between atoms: _52  and  _54
REMARK   21  A    between atoms: _54  and  _55
REMARK   22  A    between atoms: _54  and  _57
REMARK   23  A    between atoms: _57  and  _58
REMARK   24  A    between atoms: _61  and  _63
REMARK   25  A    between atoms: _63  and  _64
REMARK   26  A    between atoms: _63  and  _66
REMARK   27  A    between atoms: _66  and  _67
REMARK   28  A    between atoms: _70  and  _72
REMARK   29  A    between atoms: _72  and  _73
REMARK   30  A    between atoms: _75  and  _77
REMARK   31  A    between atoms: _77  and  _78
REMARK   32  A    between atoms: _81  and  _83
REMARK   33  A    between atoms: _83  and  _84
REMARK   34  A    between atoms: _83  and  _86
REMARK   35  A    between atoms: _86  and  _87
REMARK   36  A    between atoms: _90  and  _92
REMARK   37  A    between atoms: _92  and  _93
REMARK   38  A    between atoms: _92  and  _95
REMARK   39  A    between atoms: _95  and  _96
REMARK   40  A    between atoms: _99  and  _101
REMARK   41  A    between atoms: _101  and  _102
REMARK   42  A    between atoms: _101  and  _104
REMARK   43  A    between atoms: _104  and  _105
REMARK   44  A    between atoms: _108  and  _110
REMARK   45  A    between atoms: _110  and  _111
REMARK   46  A    between atoms: _110  and  _113
REMARK   47  A    between atoms: _116  and  _118
REMARK   48  A    between atoms: _118  and  _119
REMARK   49  A    between atoms: _118  and  _121
REMARK   50  A    between atoms: _121  and  _122
REMARK   51  A    between atoms: _122  and  _123
REMARK   52  A    between atoms: _123  and  _124
REMARK   53  A    between atoms: _124  and  _125
REMARK   54  A    between atoms: _129  and  _131
REMARK   55  A    between atoms: _131  and  _132
REMARK   56  A    between atoms: _131  and  _134
REMARK   57  A    between atoms: _134  and  _135
REMARK   58  A    between atoms: _135  and  _136
REMARK   59  A    between atoms: _138  and  _140
REMARK   60  A    between atoms: _140  and  _141
REMARK   61  A    between atoms: _140  and  _143
REMARK   62  A    between atoms: _143  and  _144
REMARK   63  A    between atoms: _147  and  _149
REMARK   64  A    between atoms: _149  and  _150
REMARK   65  A    between atoms: _152  and  _154
REMARK   66  A    between atoms: _154  and  _155
REMARK   67  A    between atoms: _157  and  _159
REMARK   68  A    between atoms: _159  and  _160
REMARK   69  A    between atoms: _159  and  _162
REMARK   70  A    between atoms: _162  and  _163
REMARK   71  A    between atoms: _166  and  _168
REMARK   72  A    between atoms: _168  and  _169
REMARK   73  A    between atoms: _171  and  _173
REMARK   74  A    between atoms: _173  and  _174
REMARK   75  A    between atoms: _176  and  _178
REMARK   76  A    between atoms: _178  and  _179
REMARK   77  A    between atoms: _178  and  _181
REMARK   78  A    between atoms: _181  and  _182
REMARK   79  A    between atoms: _188  and  _190
REMARK   80  A    between atoms: _190  and  _191
REMARK   81  A    between atoms: _190  and  _193
REMARK   82  A    between atoms: _193  and  _194
REMARK   83  A    between atoms: _197  and  _199
REMARK   84  A    between atoms: _199  and  _200
REMARK   85  A    between atoms: _199  and  _202
REMARK   86  A    between atoms: _205  and  _207
REMARK   87  A    between atoms: _207  and  _208
REMARK   88  A    between atoms: _207  and  _210
REMARK   89  A    between atoms: _210  and  _211
REMARK   90  A    between atoms: _215  and  _216
REMARK   91  A    between atoms: _221  and  _223
REMARK   92  A    between atoms: _223  and  _224
REMARK   93  A    between atoms: _223  and  _226
REMARK   94  A    between atoms: _226  and  _227
REMARK   95  A    between atoms: _231  and  _232
REMARK   96  A    between atoms: _237  and  _239
REMARK   97  A    between atoms: _239  and  _240
REMARK   98  A    between atoms: _239  and  _242
REMARK   99  A    between atoms: _245  and  _247
REMARK  100  A    between atoms: _247  and  _248
REMARK  101  A    between atoms: _247  and  _250
REMARK  102  A    between atoms: _250  and  _251
REMARK  103  A    between atoms: _256  and  _258
REMARK  104  A    between atoms: _258  and  _259
REMARK  105  A    between atoms: _258  and  _261
REMARK  106  A    between atoms: _261  and  _262
REMARK  107  A    between atoms: _265  and  _267
REMARK  108  A    between atoms: _267  and  _268
REMARK  109  A    between atoms: _267  and  _270
REMARK  110  A    between atoms: _270  and  _271
REMARK  111  A    between atoms: _274  and  _276
REMARK  112  A    between atoms: _276  and  _277
REMARK  113  A    between atoms: _279  and  _281
REMARK  114  A    between atoms: _281  and  _282
REMARK  115  A    between atoms: _281  and  _284
REMARK  116  A    between atoms: _284  and  _285
REMARK  117  A    between atoms: _285  and  _286
REMARK  118  A    between atoms: _286  and  _287
REMARK  119  A    between atoms: _296  and  _298
REMARK  120  A    between atoms: _298  and  _299
REMARK  121  A    between atoms: _298  and  _301
REMARK  122  A    between atoms: _301  and  _302
REMARK  123  A    between atoms: _302  and  _303
REMARK  124  A    between atoms: _303  and  _304
REMARK  125  A    between atoms: _314  and  _315
REMARK  126  A    between atoms: _320  and  _322
REMARK  127  A    between atoms: _322  and  _323
REMARK  128  A    between atoms: _322  and  _325
REMARK  129  A    between atoms: _325  and  _326
REMARK  130  A    between atoms: _329  and  _331
REMARK  131  A    between atoms: _331  and  _332
REMARK  132  A    between atoms: _331  and  _334
REMARK  133  A    between atoms: _334  and  _335
REMARK  134  A    between atoms: _338  and  _340
REMARK  135  A    between atoms: _340  and  _341
REMARK  136  A    between atoms: _340  and  _343
REMARK  137  A    between atoms: _343  and  _344
REMARK  138  A    between atoms: _347  and  _349
REMARK  139  A    between atoms: _349  and  _350
REMARK  140  A    between atoms: _349  and  _352
REMARK  141  A    between atoms: _352  and  _353
REMARK  142  A    between atoms: _356  and  _358
REMARK  143  A    between atoms: _358  and  _359
REMARK  144  A    between atoms: _358  and  _361
REMARK  145  A    between atoms: _361  and  _362
REMARK  146  A    between atoms: _365  and  _367
REMARK  147  A    between atoms: _367  and  _368
REMARK  148  A    between atoms: _370  and  _372
REMARK  149  A    between atoms: _372  and  _373
REMARK  150  A    between atoms: _376  and  _378
REMARK  151  A    between atoms: _378  and  _379
REMARK  152  A    between atoms: _378  and  _381
REMARK  153  A    between atoms: _381  and  _382
REMARK  154  A    between atoms: _385  and  _387
REMARK  155  A    between atoms: _387  and  _388
REMARK  156  A    between atoms: _387  and  _390
REMARK  157  A    between atoms: _390  and  _391
REMARK  158  A    between atoms: _394  and  _396
REMARK  159  A    between atoms: _396  and  _397
REMARK  160  A    between atoms: _396  and  _399
REMARK  161  A    between atoms: _399  and  _400
REMARK  162  A    between atoms: _403  and  _405
REMARK  163  A    between atoms: _405  and  _406
REMARK  164  A    between atoms: _405  and  _408
REMARK  165  A    between atoms: _411  and  _413
REMARK  166  A    between atoms: _413  and  _414
REMARK  167  A    between atoms: _413  and  _416
REMARK  168  A    between atoms: _416  and  _417
REMARK  169  A    between atoms: _417  and  _418
REMARK  170  A    between atoms: _420  and  _422
REMARK  171  A    between atoms: _422  and  _423
REMARK  172  A    between atoms: _422  and  _425
REMARK  173  A    between atoms: _425  and  _426
REMARK  174  A    between atoms: _429  and  _431
REMARK  175  A    between atoms: _431  and  _432
REMARK  176  A    between atoms: _434  and  _436
REMARK  177  A    between atoms: _436  and  _437
REMARK  178  A    between atoms: _439  and  _441
REMARK  179  A    between atoms: _441  and  _442
REMARK  180  A    between atoms: _441  and  _444
REMARK  181  A    between atoms: _444  and  _445
REMARK  182  A    between atoms: _448  and  _450
REMARK  183  A    between atoms: _450  and  _451
REMARK  184  A    between atoms: _453  and  _455
REMARK  185  A    between atoms: _455  and  _456
REMARK  186  A    between atoms: _458  and  _460
REMARK  187  A    between atoms: _460  and  _461
REMARK  188  A    between atoms: _460  and  _463
REMARK  189  A    between atoms: _463  and  _464
REMARK  190  A    between atoms: _470  and  _472
REMARK  191  A    between atoms: _472  and  _473
REMARK  192  A    between atoms: _472  and  _475
REMARK  193  A    between atoms: _475  and  _476
REMARK  194  A    between atoms: _479  and  _481
REMARK  195  A    between atoms: _481  and  _482
REMARK  196  A    between atoms: _481  and  _484
REMARK  197  A    between atoms: _487  and  _489
REMARK  198  A    between atoms: _489  and  _490
REMARK  199  A    between atoms: _489  and  _492
REMARK  200  A    between atoms: _492  and  _493
REMARK  201  A    between atoms: _496  and  _498
REMARK  202  A    between atoms: _498  and  _499
REMARK  203  A    between atoms: _498  and  _501
REMARK  204  A    between atoms: _501  and  _502
REMARK  205  A    between atoms: _506  and  _507
REMARK  206  A    between atoms: _512  and  _514
REMARK  207  A    between atoms: _514  and  _515
REMARK  208  A    between atoms: _514  and  _517
REMARK  209  A    between atoms: _520  and  _522
REMARK  210  A    between atoms: _522  and  _523
REMARK  211  A    between atoms: _522  and  _525
REMARK  212  A    between atoms: _525  and  _526
REMARK  213  A    between atoms: _531  and  _533
REMARK  214  A    between atoms: _533  and  _534
REMARK  215  A    between atoms: _533  and  _536
REMARK  216  A    between atoms: _536  and  _537
REMARK  217  A    between atoms: _540  and  _542
REMARK  218  A    between atoms: _542  and  _543
REMARK  219  A    between atoms: _542  and  _545
REMARK  220  A    between atoms: _545  and  _546
REMARK  221  A    between atoms: _549  and  _551
REMARK  222  A    between atoms: _551  and  _552
REMARK  223  A    between atoms: _554  and  _556
REMARK  224  A    between atoms: _556  and  _557
REMARK  225  A    between atoms: _556  and  _559
REMARK  226  A    between atoms: _559  and  _560
REMARK  227  A    between atoms: _560  and  _561
REMARK  228  A    between atoms: _561  and  _562
REMARK                            x       y       z     vdW  Elec       q    Type
REMARK                         _______ _______ _______ _____ _____    ______ ____
ROOT
ATOM      1  O   HOH     1      -1.053  -9.108   8.716  0.00  0.00    +0.000 OA
ENDROOT
TORSDOF 0
REMARK  Name = ../refined-set-2016/1dif/1dif_pocket.pdb
REMARK  228 active torsions:
REMARK  status: ('A' for Active; 'I' for Inactive)
REMARK    1  A    between atoms: _1  and  _3
REMARK    2  A    between atoms: _3  and  _4
REMARK    3  A    between atoms: _3  and  _6
REMARK    4  A    between atoms: _6  and  _7
REMARK    5  A    between atoms: _7  and  _8
REMARK    6  A    between atoms: _8  and  _9
REMARK    7  A    between atoms: _19  and  _20
REMARK    8  A    between atoms: _25  and  _27
REMARK    9  A    between atoms: _27  and  _28
REMARK   10  A    between atoms: _27  and  _30
REMARK   11  A    between atoms: _30  and  _31
REMARK   12  A    between atoms: _34  and  _36
REMARK   13  A    between atoms: _36  and  _37
REMARK   14  A    between atoms: _36  and  _39
REMARK   15  A    between atoms: _39  and  _40
REMARK   16  A    between atoms: _43  and  _45
REMARK   17  A    between atoms: _45  and  _46
REMARK   18  A    between atoms: _45  and  _48
REMARK   19  A    between atoms: _48  and  _49
REMARK   20  A    between atoms: _52  and  _54
REMARK   21  A    between atoms: _54  and  _55
REMARK   22  A    between atoms: _54  and  _57
REMARK   23  A    between atoms: _57  and  _58
REMARK   24  A    between atoms: _61  and  _63
REMARK   25  A    between atoms: _63  and  _64
REMARK   26  A    between atoms: _63  and  _66
REMARK   27  A    between atoms: _66  and  _67
REMARK   28  A    between atoms: _70  and  _72
REMARK   29  A    between atoms: _72  and  _73
REMARK   30  A    between atoms: _75  and  _77
REMARK   31  A    between atoms: _77  and  _78
REMARK   32  A    between atoms: _81  and  _83
REMARK   33  A    between atoms: _83  and  _84
REMARK   34  A    between atoms: _83  and  _86
REMARK   35  A    between atoms: _86  and  _87
REMARK   36  A    between atoms: _90  and  _92
REMARK   37  A    between atoms: _92  and  _93
REMARK   38  A    between atoms: _92  and  _95
REMARK   39  A    between atoms: _95  and  _96
REMARK   40  A    between atoms: _99  and  _101
REMARK   41  A    between atoms: _101  and  _102
REMARK   42  A    between atoms: _101  and  _104
REMARK   43  A    between atoms: _104  and  _105
REMARK   44  A    between atoms: _108  and  _110
REMARK   45  A    between atoms: _110  and  _111
REMARK   46  A    between atoms: _110  and  _113
REMARK   47  A    between atoms: _116  and  _118
REMARK   48  A    between atoms: _118  and  _119
REMARK   49  A    between atoms: _118  and  _121
REMARK   50  A    between atoms: _121  and  _122
REMARK   51  A    between atoms: _122  and  _123
REMARK   52  A    between atoms: _123  and  _124
REMARK   53  A    between atoms: _124  and  _125
REMARK   54  A    between atoms: _129  and  _131
REMARK   55  A    between atoms: _131  and  _132
REMARK   56  A    between atoms: _131  and  _134
REMARK   57  A    between atoms: _134  and  _135
REMARK   58  A    between atoms: _135  and  _136
REMARK   59  A    between atoms: _138  and  _140
REMARK   60  A    between atoms: _140  and  _141
REMARK   61  A    between atoms: _140  and  _143
REMARK   62  A    between atoms: _143  and  _144
REMARK   63  A    between atoms: _147  and  _149
REMARK   64  A    between atoms: _149  and  _150
REMARK   65  A    between atoms: _152  and  _154
REMARK   66  A    between atoms: _154  and  _155
REMARK   67  A    between atoms: _157  and  _159
REMARK   68  A    between atoms: _159  and  _160
REMARK   69  A    between atoms: _159  and  _162
REMARK   70  A    between atoms: _162  and  _163
REMARK   71  A    between atoms: _166  and  _168
REMARK   72  A    between atoms: _168  and  _169
REMARK   73  A    between atoms: _171  and  _173
REMARK   74  A    between atoms: _173  and  _174
REMARK   75  A    between atoms: _176  and  _178
REMARK   76  A    between atoms: _178  and  _179
REMARK   77  A    between atoms: _178  and  _181
REMARK   78  A    between atoms: _181  and  _182
REMARK   79  A    between atoms: _188  and  _190
REMARK   80  A    between atoms: _190  and  _191
REMARK   81  A    between atoms: _190  and  _193
REMARK   82  A    between atoms: _193  and  _194
REMARK   83  A    between atoms: _197  and  _199
REMARK   84  A    between atoms: _199  and  _200
REMARK   85  A    between atoms: _199  and  _202
REMARK   86  A    between atoms: _205  and  _207
REMARK   87  A    between atoms: _207  and  _208
REMARK   88  A    between atoms: _207  and  _210
REMARK   89  A    between atoms: _210  and  _211
REMARK   90  A    between atoms: _215  and  _216
REMARK   91  A    between atoms: _221  and  _223
REMARK   92  A    between atoms: _223  and  _224
REMARK   93  A    between atoms: _223  and  _226
REMARK   94  A    between atoms: _226  and  _227
REMARK   95  A    between atoms: _231  and  _232
REMARK   96  A    between atoms: _237  and  _239
REMARK   97  A    between atoms: _239  and  _240
REMARK   98  A    between atoms: _239  and  _242
REMARK   99  A    between atoms: _245  and  _247
REMARK  100  A    between atoms: _247  and  _248
REMARK  101  A    between atoms: _247  and  _250
REMARK  102  A    between atoms: _250  and  _251
REMARK  103  A    between atoms: _256  and  _258
REMARK  104  A    between atoms: _258  and  _259
REMARK  105  A    between atoms: _258  and  _261
REMARK  106  A    between atoms: _261  and  _262
REMARK  107  A    between atoms: _265  and  _267
REMARK  108  A    between atoms: _267  and  _268
REMARK  109  A    between atoms: _267  and  _270
REMARK  110  A    between atoms: _270  and  _271
REMARK  111  A    between atoms: _274  and  _276
REMARK  112  A    between atoms: _276  and  _277
REMARK  113  A    between atoms: _279  and  _281
REMARK  114  A    between atoms: _281  and  _282
REMARK  115  A    between atoms: _281  and  _284
REMARK  116  A    between atoms: _284  and  _285
REMARK  117  A    between atoms: _285  and  _286
REMARK  118  A    between atoms: _286  and  _287
REMARK  119  A    between atoms: _296  and  _298
REMARK  120  A    between atoms: _298  and  _299
REMARK  121  A    between atoms: _298  and  _301
REMARK  122  A    between atoms: _301  and  _302
REMARK  123  A    between atoms: _302  and  _303
REMARK  124  A    between atoms: _303  and  _304
REMARK  125  A    between atoms: _314  and  _315
REMARK  126  A    between atoms: _320  and  _322
REMARK  127  A    between atoms: _322  and  _323
REMARK  128  A    between atoms: _322  and  _325
REMARK  129  A    between atoms: _325  and  _326
REMARK  130  A    between atoms: _329  and  _331
REMARK  131  A    between atoms: _331  and  _332
REMARK  132  A    between atoms: _331  and  _334
REMARK  133  A    between atoms: _334  and  _335
REMARK  134  A    between atoms: _338  and  _340
REMARK  135  A    between atoms: _340  and  _341
REMARK  136  A    between atoms: _340  and  _343
REMARK  137  A    between atoms: _343  and  _344
REMARK  138  A    between atoms: _347  and  _349
REMARK  139  A    between atoms: _349  and  _350
REMARK  140  A    between atoms: _349  and  _352
REMARK  141  A    between atoms: _352  and  _353
REMARK  142  A    between atoms: _356  and  _358
REMARK  143  A    between atoms: _358  and  _359
REMARK  144  A    between atoms: _358  and  _361
REMARK  145  A    between atoms: _361  and  _362
REMARK  146  A    between atoms: _365  and  _367
REMARK  147  A    between atoms: _367  and  _368
REMARK  148  A    between atoms: _370  and  _372
REMARK  149  A    between atoms: _372  and  _373
REMARK  150  A    between atoms: _376  and  _378
REMARK  151  A    between atoms: _378  and  _379
REMARK  152  A    between atoms: _378  and  _381
REMARK  153  A    between atoms: _381  and  _382
REMARK  154  A    between atoms: _385  and  _387
REMARK  155  A    between atoms: _387  and  _388
REMARK  156  A    between atoms: _387  and  _390
REMARK  157  A    between atoms: _390  and  _391
REMARK  158  A    between atoms: _394  and  _396
REMARK  159  A    between atoms: _396  and  _397
REMARK  160  A    between atoms: _396  and  _399
REMARK  161  A    between atoms: _399  and  _400
REMARK  162  A    between atoms: _403  and  _405
REMARK  163  A    between atoms: _405  and  _406
REMARK  164  A    between atoms: _405  and  _408
REMARK  165  A    between atoms: _411  and  _413
REMARK  166  A    between atoms: _413  and  _414
REMARK  167  A    between atoms: _413  and  _416
REMARK  168  A    between atoms: _416  and  _417
REMARK  169  A    between atoms: _417  and  _418
REMARK  170  A    between atoms: _420  and  _422
REMARK  171  A    between atoms: _422  and  _423
REMARK  172  A    between atoms: _422  and  _425
REMARK  173  A    between atoms: _425  and  _426
REMARK  174  A    between atoms: _429  and  _431
REMARK  175  A    between atoms: _431  and  _432
REMARK  176  A    between atoms: _434  and  _436
REMARK  177  A    between atoms: _436  and  _437
REMARK  178  A    between atoms: _439  and  _441
REMARK  179  A    between atoms: _441  and  _442
REMARK  180  A    between atoms: _441  and  _444
REMARK  181  A    between atoms: _444  and  _445
REMARK  182  A    between atoms: _448  and  _450
REMARK  183  A    between atoms: _450  and  _451
REMARK  184  A    between atoms: _453  and  _455
REMARK  185  A    between atoms: _455  and  _456
REMARK  186  A    between atoms: _458  and  _460
REMARK  187  A    between atoms: _460  and  _461
REMARK  188  A    between atoms: _460  and  _463
REMARK  189  A    between atoms: _463  and  _464
REMARK  190  A    between atoms: _470  and  _472
REMARK  191  A    between atoms: _472  and  _473
REMARK  192  A    between atoms: _472  and  _475
REMARK  193  A    between atoms: _475  and  _476
REMARK  194  A    between atoms: _479  and  _481
REMARK  195  A    between atoms: _481  and  _482
REMARK  196  A    between atoms: _481  and  _484
REMARK  197  A    between atoms: _487  and  _489
REMARK  198  A    between atoms: _489  and  _490
REMARK  199  A    between atoms: _489  and  _492
REMARK  200  A    between atoms: _492  and  _493
REMARK  201  A    between atoms: _496  and  _498
REMARK  202  A    between atoms: _498  and  _499
REMARK  203  A    between atoms: _498  and  _501
REMARK  204  A    between atoms: _501  and  _502
REMARK  205  A    between atoms: _506  and  _507
REMARK  206  A    between atoms: _512  and  _514
REMARK  207  A    between atoms: _514  and  _515
REMARK  208  A    between atoms: _514  and  _517
REMARK  209  A    between atoms: _520  and  _522
REMARK  210  A    between atoms: _522  and  _523
REMARK  211  A    between atoms: _522  and  _525
REMARK  212  A    between atoms: _525  and  _526
REMARK  213  A    between atoms: _531  and  _533
REMARK  214  A    between atoms: _533  and  _534
REMARK  215  A    between atoms: _533  and  _536
REMARK  216  A    between atoms: _536  and  _537
REMARK  217  A    between atoms: _540  and  _542
REMARK  218  A    between atoms: _542  and  _543
REMARK  219  A    between atoms: _542  and  _545
REMARK  220  A    between atoms: _545  and  _546
REMARK  221  A    between atoms: _549  and  _551
REMARK  222  A    between atoms: _551  and  _552
REMARK  223  A    between atoms: _554  and  _556
REMARK  224  A    between atoms: _556  and  _557
REMARK  225  A    between atoms: _556  and  _559
REMARK  226  A    between atoms: _559  and  _560
REMARK  227  A    between atoms: _560  and  _561
REMARK  228  A    between atoms: _561  and  _562
REMARK                            x       y       z     vdW  Elec       q    Type
REMARK                         _______ _______ _______ _____ _____    ______ ____
ROOT
ATOM      1  O   HOH     1       0.548   3.966   2.130  0.00  0.00    +0.000 OA
ENDROOT
TORSDOF 0
REMARK  Name = ../refined-set-2016/1dif/1dif_pocket.pdb
REMARK  228 active torsions:
REMARK  status: ('A' for Active; 'I' for Inactive)
REMARK    1  A    between atoms: _1  and  _3
REMARK    2  A    between atoms: _3  and  _4
REMARK    3  A    between atoms: _3  and  _6
REMARK    4  A    between atoms: _6  and  _7
REMARK    5  A    between atoms: _7  and  _8
REMARK    6  A    between atoms: _8  and  _9
REMARK    7  A    between atoms: _19  and  _20
REMARK    8  A    between atoms: _25  and  _27
REMARK    9  A    between atoms: _27  and  _28
REMARK   10  A    between atoms: _27  and  _30
REMARK   11  A    between atoms: _30  and  _31
REMARK   12  A    between atoms: _34  and  _36
REMARK   13  A    between atoms: _36  and  _37
REMARK   14  A    between atoms: _36  and  _39
REMARK   15  A    between atoms: _39  and  _40
REMARK   16  A    between atoms: _43  and  _45
REMARK   17  A    between atoms: _45  and  _46
REMARK   18  A    between atoms: _45  and  _48
REMARK   19  A    between atoms: _48  and  _49
REMARK   20  A    between atoms: _52  and  _54
REMARK   21  A    between atoms: _54  and  _55
REMARK   22  A    between atoms: _54  and  _57
REMARK   23  A    between atoms: _57  and  _58
REMARK   24  A    between atoms: _61  and  _63
REMARK   25  A    between atoms: _63  and  _64
REMARK   26  A    between atoms: _63  and  _66
REMARK   27  A    between atoms: _66  and  _67
REMARK   28  A    between atoms: _70  and  _72
REMARK   29  A    between atoms: _72  and  _73
REMARK   30  A    between atoms: _75  and  _77
REMARK   31  A    between atoms: _77  and  _78
REMARK   32  A    between atoms: _81  and  _83
REMARK   33  A    between atoms: _83  and  _84
REMARK   34  A    between atoms: _83  and  _86
REMARK   35  A    between atoms: _86  and  _87
REMARK   36  A    between atoms: _90  and  _92
REMARK   37  A    between atoms: _92  and  _93
REMARK   38  A    between atoms: _92  and  _95
REMARK   39  A    between atoms: _95  and  _96
REMARK   40  A    between atoms: _99  and  _101
REMARK   41  A    between atoms: _101  and  _102
REMARK   42  A    between atoms: _101  and  _104
REMARK   43  A    between atoms: _104  and  _105
REMARK   44  A    between atoms: _108  and  _110
REMARK   45  A    between atoms: _110  and  _111
REMARK   46  A    between atoms: _110  and  _113
REMARK   47  A    between atoms: _116  and  _118
REMARK   48  A    between atoms: _118  and  _119
REMARK   49  A    between atoms: _118  and  _121
REMARK   50  A    between atoms: _121  and  _122
REMARK   51  A    between atoms: _122  and  _123
REMARK   52  A    between atoms: _123  and  _124
REMARK   53  A    between atoms: _124  and  _125
REMARK   54  A    between atoms: _129  and  _131
REMARK   55  A    between atoms: _131  and  _132
REMARK   56  A    between atoms: _131  and  _134
REMARK   57  A    between atoms: _134  and  _135
REMARK   58  A    between atoms: _135  and  _136
REMARK   59  A    between atoms: _138  and  _140
REMARK   60  A    between atoms: _140  and  _141
REMARK   61  A    between atoms: _140  and  _143
REMARK   62  A    between atoms: _143  and  _144
REMARK   63  A    between atoms: _147  and  _149
REMARK   64  A    between atoms: _149  and  _150
REMARK   65  A    between atoms: _152  and  _154
REMARK   66  A    between atoms: _154  and  _155
REMARK   67  A    between atoms: _157  and  _159
REMARK   68  A    between atoms: _159  and  _160
REMARK   69  A    between atoms: _159  and  _162
REMARK   70  A    between atoms: _162  and  _163
REMARK   71  A    between atoms: _166  and  _168
REMARK   72  A    between atoms: _168  and  _169
REMARK   73  A    between atoms: _171  and  _173
REMARK   74  A    between atoms: _173  and  _174
REMARK   75  A    between atoms: _176  and  _178
REMARK   76  A    between atoms: _178  and  _179
REMARK   77  A    between atoms: _178  and  _181
REMARK   78  A    between atoms: _181  and  _182
REMARK   79  A    between atoms: _188  and  _190
REMARK   80  A    between atoms: _190  and  _191
REMARK   81  A    between atoms: _190  and  _193
REMARK   82  A    between atoms: _193  and  _194
REMARK   83  A    between atoms: _197  and  _199
REMARK   84  A    between atoms: _199  and  _200
REMARK   85  A    between atoms: _199  and  _202
REMARK   86  A    between atoms: _205  and  _207
REMARK   87  A    between atoms: _207  and  _208
REMARK   88  A    between atoms: _207  and  _210
REMARK   89  A    between atoms: _210  and  _211
REMARK   90  A    between atoms: _215  and  _216
REMARK   91  A    between atoms: _221  and  _223
REMARK   92  A    between atoms: _223  and  _224
REMARK   93  A    between atoms: _223  and  _226
REMARK   94  A    between atoms: _226  and  _227
REMARK   95  A    between atoms: _231  and  _232
REMARK   96  A    between atoms: _237  and  _239
REMARK   97  A    between atoms: _239  and  _240
REMARK   98  A    between atoms: _239  and  _242
REMARK   99  A    between atoms: _245  and  _247
REMARK  100  A    between atoms: _247  and  _248
REMARK  101  A    between atoms: _247  and  _250
REMARK  102  A    between atoms: _250  and  _251
REMARK  103  A    between atoms: _256  and  _258
REMARK  104  A    between atoms: _258  and  _259
REMARK  105  A    between atoms: _258  and  _261
REMARK  106  A    between atoms: _261  and  _262
REMARK  107  A    between atoms: _265  and  _267
REMARK  108  A    between atoms: _267  and  _268
REMARK  109  A    between atoms: _267  and  _270
REMARK  110  A    between atoms: _270  and  _271
REMARK  111  A    between atoms: _274  and  _276
REMARK  112  A    between atoms: _276  and  _277
REMARK  113  A    between atoms: _279  and  _281
REMARK  114  A    between atoms: _281  and  _282
REMARK  115  A    between atoms: _281  and  _284
REMARK  116  A    between atoms: _284  and  _285
REMARK  117  A    between atoms: _285  and  _286
REMARK  118  A    between atoms: _286  and  _287
REMARK  119  A    between atoms: _296  and  _298
REMARK  120  A    between atoms: _298  and  _299
REMARK  121  A    between atoms: _298  and  _301
REMARK  122  A    between atoms: _301  and  _302
REMARK  123  A    between atoms: _302  and  _303
REMARK  124  A    between atoms: _303  and  _304
REMARK  125  A    between atoms: _314  and  _315
REMARK  126  A    between atoms: _320  and  _322
REMARK  127  A    between atoms: _322  and  _323
REMARK  128  A    between atoms: _322  and  _325
REMARK  129  A    between atoms: _325  and  _326
REMARK  130  A    between atoms: _329  and  _331
REMARK  131  A    between atoms: _331  and  _332
REMARK  132  A    between atoms: _331  and  _334
REMARK  133  A    between atoms: _334  and  _335
REMARK  134  A    between atoms: _338  and  _340
REMARK  135  A    between atoms: _340  and  _341
REMARK  136  A    between atoms: _340  and  _343
REMARK  137  A    between atoms: _343  and  _344
REMARK  138  A    between atoms: _347  and  _349
REMARK  139  A    between atoms: _349  and  _350
REMARK  140  A    between atoms: _349  and  _352
REMARK  141  A    between atoms: _352  and  _353
REMARK  142  A    between atoms: _356  and  _358
REMARK  143  A    between atoms: _358  and  _359
REMARK  144  A    between atoms: _358  and  _361
REMARK  145  A    between atoms: _361  and  _362
REMARK  146  A    between atoms: _365  and  _367
REMARK  147  A    between atoms: _367  and  _368
REMARK  148  A    between atoms: _370  and  _372
REMARK  149  A    between atoms: _372  and  _373
REMARK  150  A    between atoms: _376  and  _378
REMARK  151  A    between atoms: _378  and  _379
REMARK  152  A    between atoms: _378  and  _381
REMARK  153  A    between atoms: _381  and  _382
REMARK  154  A    between atoms: _385  and  _387
REMARK  155  A    between atoms: _387  and  _388
REMARK  156  A    between atoms: _387  and  _390
REMARK  157  A    between atoms: _390  and  _391
REMARK  158  A    between atoms: _394  and  _396
REMARK  159  A    between atoms: _396  and  _397
REMARK  160  A    between atoms: _396  and  _399
REMARK  161  A    between atoms: _399  and  _400
REMARK  162  A    between atoms: _403  and  _405
REMARK  163  A    between atoms: _405  and  _406
REMARK  164  A    between atoms: _405  and  _408
REMARK  165  A    between atoms: _411  and  _413
REMARK  166  A    between atoms: _413  and  _414
REMARK  167  A    between atoms: _413  and  _416
REMARK  168  A    between atoms: _416  and  _417
REMARK  169  A    between atoms: _417  and  _418
REMARK  170  A    between atoms: _420  and  _422
REMARK  171  A    between atoms: _422  and  _423
REMARK  172  A    between atoms: _422  and  _425
REMARK  173  A    between atoms: _425  and  _426
REMARK  174  A    between atoms: _429  and  _431
REMARK  175  A    between atoms: _431  and  _432
REMARK  176  A    between atoms: _434  and  _436
REMARK  177  A    between atoms: _436  and  _437
REMARK  178  A    between atoms: _439  and  _441
REMARK  179  A    between atoms: _441  and  _442
REMARK  180  A    between atoms: _441  and  _444
REMARK  181  A    between atoms: _444  and  _445
REMARK  182  A    between atoms: _448  and  _450
REMARK  183  A    between atoms: _450  and  _451
REMARK  184  A    between atoms: _453  and  _455
REMARK  185  A    between atoms: _455  and  _456
REMARK  186  A    between atoms: _458  and  _460
REMARK  187  A    between atoms: _460  and  _461
REMARK  188  A    between atoms: _460  and  _463
REMARK  189  A    between atoms: _463  and  _464
REMARK  190  A    between atoms: _470  and  _472
REMARK  191  A    between atoms: _472  and  _473
REMARK  192  A    between atoms: _472  and  _475
REMARK  193  A    between atoms: _475  and  _476
REMARK  194  A    between atoms: _479  and  _481
REMARK  195  A    between atoms: _481  and  _482
REMARK  196  A    between atoms: _481  and  _484
REMARK  197  A    between atoms: _487  and  _489
REMARK  198  A    between atoms: _489  and  _490
REMARK  199  A    between atoms: _489  and  _492
REMARK  200  A    between atoms: _492  and  _493
REMARK  201  A    between atoms: _496  and  _498
REMARK  202  A    between atoms: _498  and  _499
REMARK  203  A    between atoms: _498  and  _501
REMARK  204  A    between atoms: _501  and  _502
REMARK  205  A    between atoms: _506  and  _507
REMARK  206  A    between atoms: _512  and  _514
REMARK  207  A    between atoms: _514  and  _515
REMARK  208  A    between atoms: _514  and  _517
REMARK  209  A    between atoms: _520  and  _522
REMARK  210  A    between atoms: _522  and  _523
REMARK  211  A    between atoms: _522  and  _525
REMARK  212  A    between atoms: _525  and  _526
REMARK  213  A    between atoms: _531  and  _533
REMARK  214  A    between atoms: _533  and  _534
REMARK  215  A    between atoms: _533  and  _536
REMARK  216  A    between atoms: _536  and  _537
REMARK  217  A    between atoms: _540  and  _542
REMARK  218  A    between atoms: _542  and  _543
REMARK  219  A    between atoms: _542  and  _545
REMARK  220  A    between atoms: _545  and  _546
REMARK  221  A    between atoms: _549  and  _551
REMARK  222  A    between atoms: _551  and  _552
REMARK  223  A    between atoms: _554  and  _556
REMARK  224  A    between atoms: _556  and  _557
REMARK  225  A    between atoms: _556  and  _559
REMARK  226  A    between atoms: _559  and  _560
REMARK  227  A    between atoms: _560  and  _561
REMARK  228  A    between atoms: _561  and  _562
REMARK                            x       y       z     vdW  Elec       q    Type
REMARK                         _______ _______ _______ _____ _____    ______ ____
ROOT
ATOM      1  O   HOH     1      -1.145  10.438  13.065  0.00  0.00    +0.000 OA
ENDROOT
TORSDOF 0
REMARK  Name = ../refined-set-2016/1dif/1dif_pocket.pdb
REMARK  228 active torsions:
REMARK  status: ('A' for Active; 'I' for Inactive)
REMARK    1  A    between atoms: _1  and  _3
REMARK    2  A    between atoms: _3  and  _4
REMARK    3  A    between atoms: _3  and  _6
REMARK    4  A    between atoms: _6  and  _7
REMARK    5  A    between atoms: _7  and  _8
REMARK    6  A    between atoms: _8  and  _9
REMARK    7  A    between atoms: _19  and  _20
REMARK    8  A    between atoms: _25  and  _27
REMARK    9  A    between atoms: _27  and  _28
REMARK   10  A    between atoms: _27  and  _30
REMARK   11  A    between atoms: _30  and  _31
REMARK   12  A    between atoms: _34  and  _36
REMARK   13  A    between atoms: _36  and  _37
REMARK   14  A    between atoms: _36  and  _39
REMARK   15  A    between atoms: _39  and  _40
REMARK   16  A    between atoms: _43  and  _45
REMARK   17  A    between atoms: _45  and  _46
REMARK   18  A    between atoms: _45  and  _48
REMARK   19  A    between atoms: _48  and  _49
REMARK   20  A    between atoms: _52  and  _54
REMARK   21  A    between atoms: _54  and  _55
REMARK   22  A    between atoms: _54  and  _57
REMARK   23  A    between atoms: _57  and  _58
REMARK   24  A    between atoms: _61  and  _63
REMARK   25  A    between atoms: _63  and  _64
REMARK   26  A    between atoms: _63  and  _66
REMARK   27  A    between atoms: _66  and  _67
REMARK   28  A    between atoms: _70  and  _72
REMARK   29  A    between atoms: _72  and  _73
REMARK   30  A    between atoms: _75  and  _77
REMARK   31  A    between atoms: _77  and  _78
REMARK   32  A    between atoms: _81  and  _83
REMARK   33  A    between atoms: _83  and  _84
REMARK   34  A    between atoms: _83  and  _86
REMARK   35  A    between atoms: _86  and  _87
REMARK   36  A    between atoms: _90  and  _92
REMARK   37  A    between atoms: _92  and  _93
REMARK   38  A    between atoms: _92  and  _95
REMARK   39  A    between atoms: _95  and  _96
REMARK   40  A    between atoms: _99  and  _101
REMARK   41  A    between atoms: _101  and  _102
REMARK   42  A    between atoms: _101  and  _104
REMARK   43  A    between atoms: _104  and  _105
REMARK   44  A    between atoms: _108  and  _110
REMARK   45  A    between atoms: _110  and  _111
REMARK   46  A    between atoms: _110  and  _113
REMARK   47  A    between atoms: _116  and  _118
REMARK   48  A    between atoms: _118  and  _119
REMARK   49  A    between atoms: _118  and  _121
REMARK   50  A    between atoms: _121  and  _122
REMARK   51  A    between atoms: _122  and  _123
REMARK   52  A    between atoms: _123  and  _124
REMARK   53  A    between atoms: _124  and  _125
REMARK   54  A    between atoms: _129  and  _131
REMARK   55  A    between atoms: _131  and  _132
REMARK   56  A    between atoms: _131  and  _134
REMARK   57  A    between atoms: _134  and  _135
REMARK   58  A    between atoms: _135  and  _136
REMARK   59  A    between atoms: _138  and  _140
REMARK   60  A    between atoms: _140  and  _141
REMARK   61  A    between atoms: _140  and  _143
REMARK   62  A    between atoms: _143  and  _144
REMARK   63  A    between atoms: _147  and  _149
REMARK   64  A    between atoms: _149  and  _150
REMARK   65  A    between atoms: _152  and  _154
REMARK   66  A    between atoms: _154  and  _155
REMARK   67  A    between atoms: _157  and  _159
REMARK   68  A    between atoms: _159  and  _160
REMARK   69  A    between atoms: _159  and  _162
REMARK   70  A    between atoms: _162  and  _163
REMARK   71  A    between atoms: _166  and  _168
REMARK   72  A    between atoms: _168  and  _169
REMARK   73  A    between atoms: _171  and  _173
REMARK   74  A    between atoms: _173  and  _174
REMARK   75  A    between atoms: _176  and  _178
REMARK   76  A    between atoms: _178  and  _179
REMARK   77  A    between atoms: _178  and  _181
REMARK   78  A    between atoms: _181  and  _182
REMARK   79  A    between atoms: _188  and  _190
REMARK   80  A    between atoms: _190  and  _191
REMARK   81  A    between atoms: _190  and  _193
REMARK   82  A    between atoms: _193  and  _194
REMARK   83  A    between atoms: _197  and  _199
REMARK   84  A    between atoms: _199  and  _200
REMARK   85  A    between atoms: _199  and  _202
REMARK   86  A    between atoms: _205  and  _207
REMARK   87  A    between atoms: _207  and  _208
REMARK   88  A    between atoms: _207  and  _210
REMARK   89  A    between atoms: _210  and  _211
REMARK   90  A    between atoms: _215  and  _216
REMARK   91  A    between atoms: _221  and  _223
REMARK   92  A    between atoms: _223  and  _224
REMARK   93  A    between atoms: _223  and  _226
REMARK   94  A    between atoms: _226  and  _227
REMARK   95  A    between atoms: _231  and  _232
REMARK   96  A    between atoms: _237  and  _239
REMARK   97  A    between atoms: _239  and  _240
REMARK   98  A    between atoms: _239  and  _242
REMARK   99  A    between atoms: _245  and  _247
REMARK  100  A    between atoms: _247  and  _248
REMARK  101  A    between atoms: _247  and  _250
REMARK  102  A    between atoms: _250  and  _251
REMARK  103  A    between atoms: _256  and  _258
REMARK  104  A    between atoms: _258  and  _259
REMARK  105  A    between atoms: _258  and  _261
REMARK  106  A    between atoms: _261  and  _262
REMARK  107  A    between atoms: _265  and  _267
REMARK  108  A    between atoms: _267  and  _268
REMARK  109  A    between atoms: _267  and  _270
REMARK  110  A    between atoms: _270  and  _271
REMARK  111  A    between atoms: _274  and  _276
REMARK  112  A    between atoms: _276  and  _277
REMARK  113  A    between atoms: _279  and  _281
REMARK  114  A    between atoms: _281  and  _282
REMARK  115  A    between atoms: _281  and  _284
REMARK  116  A    between atoms: _284  and  _285
REMARK  117  A    between atoms: _285  and  _286
REMARK  118  A    between atoms: _286  and  _287
REMARK  119  A    between atoms: _296  and  _298
REMARK  120  A    between atoms: _298  and  _299
REMARK  121  A    between atoms: _298  and  _301
REMARK  122  A    between atoms: _301  and  _302
REMARK  123  A    between atoms: _302  and  _303
REMARK  124  A    between atoms: _303  and  _304
REMARK  125  A    between atoms: _314  and  _315
REMARK  126  A    between atoms: _320  and  _322
REMARK  127  A    between atoms: _322  and  _323
REMARK  128  A    between atoms: _322  and  _325
REMARK  129  A    between atoms: _325  and  _326
REMARK  130  A    between atoms: _329  and  _331
REMARK  131  A    between atoms: _331  and  _332
REMARK  132  A    between atoms: _331  and  _334
REMARK  133  A    between atoms: _334  and  _335
REMARK  134  A    between atoms: _338  and  _340
REMARK  135  A    between atoms: _340  and  _341
REMARK  136  A    between atoms: _340  and  _343
REMARK  137  A    between atoms: _343  and  _344
REMARK  138  A    between atoms: _347  and  _349
REMARK  139  A    between atoms: _349  and  _350
REMARK  140  A    between atoms: _349  and  _352
REMARK  141  A    between atoms: _352  and  _353
REMARK  142  A    between atoms: _356  and  _358
REMARK  143  A    between atoms: _358  and  _359
REMARK  144  A    between atoms: _358  and  _361
REMARK  145  A    between atoms: _361  and  _362
REMARK  146  A    between atoms: _365  and  _367
REMARK  147  A    between atoms: _367  and  _368
REMARK  148  A    between atoms: _370  and  _372
REMARK  149  A    between atoms: _372  and  _373
REMARK  150  A    between atoms: _376  and  _378
REMARK  151  A    between atoms: _378  and  _379
REMARK  152  A    between atoms: _378  and  _381
REMARK  153  A    between atoms: _381  and  _382
REMARK  154  A    between atoms: _385  and  _387
REMARK  155  A    between atoms: _387  and  _388
REMARK  156  A    between atoms: _387  and  _390
REMARK  157  A    between atoms: _390  and  _391
REMARK  158  A    between atoms: _394  and  _396
REMARK  159  A    between atoms: _396  and  _397
REMARK  160  A    between atoms: _396  and  _399
REMARK  161  A    between atoms: _399  and  _400
REMARK  162  A    between atoms: _403  and  _405
REMARK  163  A    between atoms: _405  and  _406
REMARK  164  A    between atoms: _405  and  _408
REMARK  165  A    between atoms: _411  and  _413
REMARK  166  A    between atoms: _413  and  _414
REMARK  167  A    between atoms: _413  and  _416
REMARK  168  A    between atoms: _416  and  _417
REMARK  169  A    between atoms: _417  and  _418
REMARK  170  A    between atoms: _420  and  _422
REMARK  171  A    between atoms: _422  and  _423
REMARK  172  A    between atoms: _422  and  _425
REMARK  173  A    between atoms: _425  and  _426
REMARK  174  A    between atoms: _429  and  _431
REMARK  175  A    between atoms: _431  and  _432
REMARK  176  A    between atoms: _434  and  _436
REMARK  177  A    between atoms: _436  and  _437
REMARK  178  A    between atoms: _439  and  _441
REMARK  179  A    between atoms: _441  and  _442
REMARK  180  A    between atoms: _441  and  _444
REMARK  181  A    between atoms: _444  and  _445
REMARK  182  A    between atoms: _448  and  _450
REMARK  183  A    between atoms: _450  and  _451
REMARK  184  A    between atoms: _453  and  _455
REMARK  185  A    between atoms: _455  and  _456
REMARK  186  A    between atoms: _458  and  _460
REMARK  187  A    between atoms: _460  and  _461
REMARK  188  A    between atoms: _460  and  _463
REMARK  189  A    between atoms: _463  and  _464
REMARK  190  A    between atoms: _470  and  _472
REMARK  191  A    between atoms: _472  and  _473
REMARK  192  A    between atoms: _472  and  _475
REMARK  193  A    between atoms: _475  and  _476
REMARK  194  A    between atoms: _479  and  _481
REMARK  195  A    between atoms: _481  and  _482
REMARK  196  A    between atoms: _481  and  _484
REMARK  197  A    between atoms: _487  and  _489
REMARK  198  A    between atoms: _489  and  _490
REMARK  199  A    between atoms: _489  and  _492
REMARK  200  A    between atoms: _492  and  _493
REMARK  201  A    between atoms: _496  and  _498
REMARK  202  A    between atoms: _498  and  _499
REMARK  203  A    between atoms: _498  and  _501
REMARK  204  A    between atoms: _501  and  _502
REMARK  205  A    between atoms: _506  and  _507
REMARK  206  A    between atoms: _512  and  _514
REMARK  207  A    between atoms: _514  and  _515
REMARK  208  A    between atoms: _514  and  _517
REMARK  209  A    between atoms: _520  and  _522
REMARK  210  A    between atoms: _522  and  _523
REMARK  211  A    between atoms: _522  and  _525
REMARK  212  A    between atoms: _525  and  _526
REMARK  213  A    between atoms: _531  and  _533
REMARK  214  A    between atoms: _533  and  _534
REMARK  215  A    between atoms: _533  and  _536
REMARK  216  A    between atoms: _536  and  _537
REMARK  217  A    between atoms: _540  and  _542
REMARK  218  A    between atoms: _542  and  _543
REMARK  219  A    between atoms: _542  and  _545
REMARK  220  A    between atoms: _545  and  _546
REMARK  221  A    between atoms: _549  and  _551
REMARK  222  A    between atoms: _551  and  _552
REMARK  223  A    between atoms: _554  and  _556
REMARK  224  A    between atoms: _556  and  _557
REMARK  225  A    between atoms: _556  and  _559
REMARK  226  A    between atoms: _559  and  _560
REMARK  227  A    between atoms: _560  and  _561
REMARK  228  A    between atoms: _561  and  _562
REMARK                            x       y       z     vdW  Elec       q    Type
REMARK                         _______ _______ _______ _____ _____    ______ ____
ROOT
ATOM      1  O   HOH     1       3.223   5.229   4.043  0.00  0.00    +0.000 OA
ENDROOT
TORSDOF 0
REMARK  Name = ../refined-set-2016/1dif/1dif_pocket.pdb
REMARK  228 active torsions:
REMARK  status: ('A' for Active; 'I' for Inactive)
REMARK    1  A    between atoms: _1  and  _3
REMARK    2  A    between atoms: _3  and  _4
REMARK    3  A    between atoms: _3  and  _6
REMARK    4  A    between atoms: _6  and  _7
REMARK    5  A    between atoms: _7  and  _8
REMARK    6  A    between atoms: _8  and  _9
REMARK    7  A    between atoms: _19  and  _20
REMARK    8  A    between atoms: _25  and  _27
REMARK    9  A    between atoms: _27  and  _28
REMARK   10  A    between atoms: _27  and  _30
REMARK   11  A    between atoms: _30  and  _31
REMARK   12  A    between atoms: _34  and  _36
REMARK   13  A    between atoms: _36  and  _37
REMARK   14  A    between atoms: _36  and  _39
REMARK   15  A    between atoms: _39  and  _40
REMARK   16  A    between atoms: _43  and  _45
REMARK   17  A    between atoms: _45  and  _46
REMARK   18  A    between atoms: _45  and  _48
REMARK   19  A    between atoms: _48  and  _49
REMARK   20  A    between atoms: _52  and  _54
REMARK   21  A    between atoms: _54  and  _55
REMARK   22  A    between atoms: _54  and  _57
REMARK   23  A    between atoms: _57  and  _58
REMARK   24  A    between atoms: _61  and  _63
REMARK   25  A    between atoms: _63  and  _64
REMARK   26  A    between atoms: _63  and  _66
REMARK   27  A    between atoms: _66  and  _67
REMARK   28  A    between atoms: _70  and  _72
REMARK   29  A    between atoms: _72  and  _73
REMARK   30  A    between atoms: _75  and  _77
REMARK   31  A    between atoms: _77  and  _78
REMARK   32  A    between atoms: _81  and  _83
REMARK   33  A    between atoms: _83  and  _84
REMARK   34  A    between atoms: _83  and  _86
REMARK   35  A    between atoms: _86  and  _87
REMARK   36  A    between atoms: _90  and  _92
REMARK   37  A    between atoms: _92  and  _93
REMARK   38  A    between atoms: _92  and  _95
REMARK   39  A    between atoms: _95  and  _96
REMARK   40  A    between atoms: _99  and  _101
REMARK   41  A    between atoms: _101  and  _102
REMARK   42  A    between atoms: _101  and  _104
REMARK   43  A    between atoms: _104  and  _105
REMARK   44  A    between atoms: _108  and  _110
REMARK   45  A    between atoms: _110  and  _111
REMARK   46  A    between atoms: _110  and  _113
REMARK   47  A    between atoms: _116  and  _118
REMARK   48  A    between atoms: _118  and  _119
REMARK   49  A    between atoms: _118  and  _121
REMARK   50  A    between atoms: _121  and  _122
REMARK   51  A    between atoms: _122  and  _123
REMARK   52  A    between atoms: _123  and  _124
REMARK   53  A    between atoms: _124  and  _125
REMARK   54  A    between atoms: _129  and  _131
REMARK   55  A    between atoms: _131  and  _132
REMARK   56  A    between atoms: _131  and  _134
REMARK   57  A    between atoms: _134  and  _135
REMARK   58  A    between atoms: _135  and  _136
REMARK   59  A    between atoms: _138  and  _140
REMARK   60  A    between atoms: _140  and  _141
REMARK   61  A    between atoms: _140  and  _143
REMARK   62  A    between atoms: _143  and  _144
REMARK   63  A    between atoms: _147  and  _149
REMARK   64  A    between atoms: _149  and  _150
REMARK   65  A    between atoms: _152  and  _154
REMARK   66  A    between atoms: _154  and  _155
REMARK   67  A    between atoms: _157  and  _159
REMARK   68  A    between atoms: _159  and  _160
REMARK   69  A    between atoms: _159  and  _162
REMARK   70  A    between atoms: _162  and  _163
REMARK   71  A    between atoms: _166  and  _168
REMARK   72  A    between atoms: _168  and  _169
REMARK   73  A    between atoms: _171  and  _173
REMARK   74  A    between atoms: _173  and  _174
REMARK   75  A    between atoms: _176  and  _178
REMARK   76  A    between atoms: _178  and  _179
REMARK   77  A    between atoms: _178  and  _181
REMARK   78  A    between atoms: _181  and  _182
REMARK   79  A    between atoms: _188  and  _190
REMARK   80  A    between atoms: _190  and  _191
REMARK   81  A    between atoms: _190  and  _193
REMARK   82  A    between atoms: _193  and  _194
REMARK   83  A    between atoms: _197  and  _199
REMARK   84  A    between atoms: _199  and  _200
REMARK   85  A    between atoms: _199  and  _202
REMARK   86  A    between atoms: _205  and  _207
REMARK   87  A    between atoms: _207  and  _208
REMARK   88  A    between atoms: _207  and  _210
REMARK   89  A    between atoms: _210  and  _211
REMARK   90  A    between atoms: _215  and  _216
REMARK   91  A    between atoms: _221  and  _223
REMARK   92  A    between atoms: _223  and  _224
REMARK   93  A    between atoms: _223  and  _226
REMARK   94  A    between atoms: _226  and  _227
REMARK   95  A    between atoms: _231  and  _232
REMARK   96  A    between atoms: _237  and  _239
REMARK   97  A    between atoms: _239  and  _240
REMARK   98  A    between atoms: _239  and  _242
REMARK   99  A    between atoms: _245  and  _247
REMARK  100  A    between atoms: _247  and  _248
REMARK  101  A    between atoms: _247  and  _250
REMARK  102  A    between atoms: _250  and  _251
REMARK  103  A    between atoms: _256  and  _258
REMARK  104  A    between atoms: _258  and  _259
REMARK  105  A    between atoms: _258  and  _261
REMARK  106  A    between atoms: _261  and  _262
REMARK  107  A    between atoms: _265  and  _267
REMARK  108  A    between atoms: _267  and  _268
REMARK  109  A    between atoms: _267  and  _270
REMARK  110  A    between atoms: _270  and  _271
REMARK  111  A    between atoms: _274  and  _276
REMARK  112  A    between atoms: _276  and  _277
REMARK  113  A    between atoms: _279  and  _281
REMARK  114  A    between atoms: _281  and  _282
REMARK  115  A    between atoms: _281  and  _284
REMARK  116  A    between atoms: _284  and  _285
REMARK  117  A    between atoms: _285  and  _286
REMARK  118  A    between atoms: _286  and  _287
REMARK  119  A    between atoms: _296  and  _298
REMARK  120  A    between atoms: _298  and  _299
REMARK  121  A    between atoms: _298  and  _301
REMARK  122  A    between atoms: _301  and  _302
REMARK  123  A    between atoms: _302  and  _303
REMARK  124  A    between atoms: _303  and  _304
REMARK  125  A    between atoms: _314  and  _315
REMARK  126  A    between atoms: _320  and  _322
REMARK  127  A    between atoms: _322  and  _323
REMARK  128  A    between atoms: _322  and  _325
REMARK  129  A    between atoms: _325  and  _326
REMARK  130  A    between atoms: _329  and  _331
REMARK  131  A    between atoms: _331  and  _332
REMARK  132  A    between atoms: _331  and  _334
REMARK  133  A    between atoms: _334  and  _335
REMARK  134  A    between atoms: _338  and  _340
REMARK  135  A    between atoms: _340  and  _341
REMARK  136  A    between atoms: _340  and  _343
REMARK  137  A    between atoms: _343  and  _344
REMARK  138  A    between atoms: _347  and  _349
REMARK  139  A    between atoms: _349  and  _350
REMARK  140  A    between atoms: _349  and  _352
REMARK  141  A    between atoms: _352  and  _353
REMARK  142  A    between atoms: _356  and  _358
REMARK  143  A    between atoms: _358  and  _359
REMARK  144  A    between atoms: _358  and  _361
REMARK  145  A    between atoms: _361  and  _362
REMARK  146  A    between atoms: _365  and  _367
REMARK  147  A    between atoms: _367  and  _368
REMARK  148  A    between atoms: _370  and  _372
REMARK  149  A    between atoms: _372  and  _373
REMARK  150  A    between atoms: _376  and  _378
REMARK  151  A    between atoms: _378  and  _379
REMARK  152  A    between atoms: _378  and  _381
REMARK  153  A    between atoms: _381  and  _382
REMARK  154  A    between atoms: _385  and  _387
REMARK  155  A    between atoms: _387  and  _388
REMARK  156  A    between atoms: _387  and  _390
REMARK  157  A    between atoms: _390  and  _391
REMARK  158  A    between atoms: _394  and  _396
REMARK  159  A    between atoms: _396  and  _397
REMARK  160  A    between atoms: _396  and  _399
REMARK  161  A    between atoms: _399  and  _400
REMARK  162  A    between atoms: _403  and  _405
REMARK  163  A    between atoms: _405  and  _406
REMARK  164  A    between atoms: _405  and  _408
REMARK  165  A    between atoms: _411  and  _413
REMARK  166  A    between atoms: _413  and  _414
REMARK  167  A    between atoms: _413  and  _416
REMARK  168  A    between atoms: _416  and  _417
REMARK  169  A    between atoms: _417  and  _418
REMARK  170  A    between atoms: _420  and  _422
REMARK  171  A    between atoms: _422  and  _423
REMARK  172  A    between atoms: _422  and  _425
REMARK  173  A    between atoms: _425  and  _426
REMARK  174  A    between atoms: _429  and  _431
REMARK  175  A    between atoms: _431  and  _432
REMARK  176  A    between atoms: _434  and  _436
REMARK  177  A    between atoms: _436  and  _437
REMARK  178  A    between atoms: _439  and  _441
REMARK  179  A    between atoms: _441  and  _442
REMARK  180  A    between atoms: _441  and  _444
REMARK  181  A    between atoms: _444  and  _445
REMARK  182  A    between atoms: _448  and  _450
REMARK  183  A    between atoms: _450  and  _451
REMARK  184  A    between atoms: _453  and  _455
REMARK  185  A    between atoms: _455  and  _456
REMARK  186  A    between atoms: _458  and  _460
REMARK  187  A    between atoms: _460  and  _461
REMARK  188  A    between atoms: _460  and  _463
REMARK  189  A    between atoms: _463  and  _464
REMARK  190  A    between atoms: _470  and  _472
REMARK  191  A    between atoms: _472  and  _473
REMARK  192  A    between atoms: _472  and  _475
REMARK  193  A    between atoms: _475  and  _476
REMARK  194  A    between atoms: _479  and  _481
REMARK  195  A    between atoms: _481  and  _482
REMARK  196  A    between atoms: _481  and  _484
REMARK  197  A    between atoms: _487  and  _489
REMARK  198  A    between atoms: _489  and  _490
REMARK  199  A    between atoms: _489  and  _492
REMARK  200  A    between atoms: _492  and  _493
REMARK  201  A    between atoms: _496  and  _498
REMARK  202  A    between atoms: _498  and  _499
REMARK  203  A    between atoms: _498  and  _501
REMARK  204  A    between atoms: _501  and  _502
REMARK  205  A    between atoms: _506  and  _507
REMARK  206  A    between atoms: _512  and  _514
REMARK  207  A    between atoms: _514  and  _515
REMARK  208  A    between atoms: _514  and  _517
REMARK  209  A    between atoms: _520  and  _522
REMARK  210  A    between atoms: _522  and  _523
REMARK  211  A    between atoms: _522  and  _525
REMARK  212  A    between atoms: _525  and  _526
REMARK  213  A    between atoms: _531  and  _533
REMARK  214  A    between atoms: _533  and  _534
REMARK  215  A    between atoms: _533  and  _536
REMARK  216  A    between atoms: _536  and  _537
REMARK  217  A    between atoms: _540  and  _542
REMARK  218  A    between atoms: _542  and  _543
REMARK  219  A    between atoms: _542  and  _545
REMARK  220  A    between atoms: _545  and  _546
REMARK  221  A    between atoms: _549  and  _551
REMARK  222  A    between atoms: _551  and  _552
REMARK  223  A    between atoms: _554  and  _556
REMARK  224  A    between atoms: _556  and  _557
REMARK  225  A    between atoms: _556  and  _559
REMARK  226  A    between atoms: _559  and  _560
REMARK  227  A    between atoms: _560  and  _561
REMARK  228  A    between atoms: _561  and  _562
REMARK                            x       y       z     vdW  Elec       q    Type
REMARK                         _______ _______ _______ _____ _____    ______ ____
ROOT
ATOM      1  O   HOH     1      -4.767  -7.296  21.255  0.00  0.00    +0.000 OA
ENDROOT
TORSDOF 0
REMARK  Name = ../refined-set-2016/1dif/1dif_pocket.pdb
REMARK  228 active torsions:
REMARK  status: ('A' for Active; 'I' for Inactive)
REMARK    1  A    between atoms: _1  and  _3
REMARK    2  A    between atoms: _3  and  _4
REMARK    3  A    between atoms: _3  and  _6
REMARK    4  A    between atoms: _6  and  _7
REMARK    5  A    between atoms: _7  and  _8
REMARK    6  A    between atoms: _8  and  _9
REMARK    7  A    between atoms: _19  and  _20
REMARK    8  A    between atoms: _25  and  _27
REMARK    9  A    between atoms: _27  and  _28
REMARK   10  A    between atoms: _27  and  _30
REMARK   11  A    between atoms: _30  and  _31
REMARK   12  A    between atoms: _34  and  _36
REMARK   13  A    between atoms: _36  and  _37
REMARK   14  A    between atoms: _36  and  _39
REMARK   15  A    between atoms: _39  and  _40
REMARK   16  A    between atoms: _43  and  _45
REMARK   17  A    between atoms: _45  and  _46
REMARK   18  A    between atoms: _45  and  _48
REMARK   19  A    between atoms: _48  and  _49
REMARK   20  A    between atoms: _52  and  _54
REMARK   21  A    between atoms: _54  and  _55
REMARK   22  A    between atoms: _54  and  _57
REMARK   23  A    between atoms: _57  and  _58
REMARK   24  A    between atoms: _61  and  _63
REMARK   25  A    between atoms: _63  and  _64
REMARK   26  A    between atoms: _63  and  _66
REMARK   27  A    between atoms: _66  and  _67
REMARK   28  A    between atoms: _70  and  _72
REMARK   29  A    between atoms: _72  and  _73
REMARK   30  A    between atoms: _75  and  _77
REMARK   31  A    between atoms: _77  and  _78
REMARK   32  A    between atoms: _81  and  _83
REMARK   33  A    between atoms: _83  and  _84
REMARK   34  A    between atoms: _83  and  _86
REMARK   35  A    between atoms: _86  and  _87
REMARK   36  A    between atoms: _90  and  _92
REMARK   37  A    between atoms: _92  and  _93
REMARK   38  A    between atoms: _92  and  _95
REMARK   39  A    between atoms: _95  and  _96
REMARK   40  A    between atoms: _99  and  _101
REMARK   41  A    between atoms: _101  and  _102
REMARK   42  A    between atoms: _101  and  _104
REMARK   43  A    between atoms: _104  and  _105
REMARK   44  A    between atoms: _108  and  _110
REMARK   45  A    between atoms: _110  and  _111
REMARK   46  A    between atoms: _110  and  _113
REMARK   47  A    between atoms: _116  and  _118
REMARK   48  A    between atoms: _118  and  _119
REMARK   49  A    between atoms: _118  and  _121
REMARK   50  A    between atoms: _121  and  _122
REMARK   51  A    between atoms: _122  and  _123
REMARK   52  A    between atoms: _123  and  _124
REMARK   53  A    between atoms: _124  and  _125
REMARK   54  A    between atoms: _129  and  _131
REMARK   55  A    between atoms: _131  and  _132
REMARK   56  A    between atoms: _131  and  _134
REMARK   57  A    between atoms: _134  and  _135
REMARK   58  A    between atoms: _135  and  _136
REMARK   59  A    between atoms: _138  and  _140
REMARK   60  A    between atoms: _140  and  _141
REMARK   61  A    between atoms: _140  and  _143
REMARK   62  A    between atoms: _143  and  _144
REMARK   63  A    between atoms: _147  and  _149
REMARK   64  A    between atoms: _149  and  _150
REMARK   65  A    between atoms: _152  and  _154
REMARK   66  A    between atoms: _154  and  _155
REMARK   67  A    between atoms: _157  and  _159
REMARK   68  A    between atoms: _159  and  _160
REMARK   69  A    between atoms: _159  and  _162
REMARK   70  A    between atoms: _162  and  _163
REMARK   71  A    between atoms: _166  and  _168
REMARK   72  A    between atoms: _168  and  _169
REMARK   73  A    between atoms: _171  and  _173
REMARK   74  A    between atoms: _173  and  _174
REMARK   75  A    between atoms: _176  and  _178
REMARK   76  A    between atoms: _178  and  _179
REMARK   77  A    between atoms: _178  and  _181
REMARK   78  A    between atoms: _181  and  _182
REMARK   79  A    between atoms: _188  and  _190
REMARK   80  A    between atoms: _190  and  _191
REMARK   81  A    between atoms: _190  and  _193
REMARK   82  A    between atoms: _193  and  _194
REMARK   83  A    between atoms: _197  and  _199
REMARK   84  A    between atoms: _199  and  _200
REMARK   85  A    between atoms: _199  and  _202
REMARK   86  A    between atoms: _205  and  _207
REMARK   87  A    between atoms: _207  and  _208
REMARK   88  A    between atoms: _207  and  _210
REMARK   89  A    between atoms: _210  and  _211
REMARK   90  A    between atoms: _215  and  _216
REMARK   91  A    between atoms: _221  and  _223
REMARK   92  A    between atoms: _223  and  _224
REMARK   93  A    between atoms: _223  and  _226
REMARK   94  A    between atoms: _226  and  _227
REMARK   95  A    between atoms: _231  and  _232
REMARK   96  A    between atoms: _237  and  _239
REMARK   97  A    between atoms: _239  and  _240
REMARK   98  A    between atoms: _239  and  _242
REMARK   99  A    between atoms: _245  and  _247
REMARK  100  A    between atoms: _247  and  _248
REMARK  101  A    between atoms: _247  and  _250
REMARK  102  A    between atoms: _250  and  _251
REMARK  103  A    between atoms: _256  and  _258
REMARK  104  A    between atoms: _258  and  _259
REMARK  105  A    between atoms: _258  and  _261
REMARK  106  A    between atoms: _261  and  _262
REMARK  107  A    between atoms: _265  and  _267
REMARK  108  A    between atoms: _267  and  _268
REMARK  109  A    between atoms: _267  and  _270
REMARK  110  A    between atoms: _270  and  _271
REMARK  111  A    between atoms: _274  and  _276
REMARK  112  A    between atoms: _276  and  _277
REMARK  113  A    between atoms: _279  and  _281
REMARK  114  A    between atoms: _281  and  _282
REMARK  115  A    between atoms: _281  and  _284
REMARK  116  A    between atoms: _284  and  _285
REMARK  117  A    between atoms: _285  and  _286
REMARK  118  A    between atoms: _286  and  _287
REMARK  119  A    between atoms: _296  and  _298
REMARK  120  A    between atoms: _298  and  _299
REMARK  121  A    between atoms: _298  and  _301
REMARK  122  A    between atoms: _301  and  _302
REMARK  123  A    between atoms: _302  and  _303
REMARK  124  A    between atoms: _303  and  _304
REMARK  125  A    between atoms: _314  and  _315
REMARK  126  A    between atoms: _320  and  _322
REMARK  127  A    between atoms: _322  and  _323
REMARK  128  A    between atoms: _322  and  _325
REMARK  129  A    between atoms: _325  and  _326
REMARK  130  A    between atoms: _329  and  _331
REMARK  131  A    between atoms: _331  and  _332
REMARK  132  A    between atoms: _331  and  _334
REMARK  133  A    between atoms: _334  and  _335
REMARK  134  A    between atoms: _338  and  _340
REMARK  135  A    between atoms: _340  and  _341
REMARK  136  A    between atoms: _340  and  _343
REMARK  137  A    between atoms: _343  and  _344
REMARK  138  A    between atoms: _347  and  _349
REMARK  139  A    between atoms: _349  and  _350
REMARK  140  A    between atoms: _349  and  _352
REMARK  141  A    between atoms: _352  and  _353
REMARK  142  A    between atoms: _356  and  _358
REMARK  143  A    between atoms: _358  and  _359
REMARK  144  A    between atoms: _358  and  _361
REMARK  145  A    between atoms: _361  and  _362
REMARK  146  A    between atoms: _365  and  _367
REMARK  147  A    between atoms: _367  and  _368
REMARK  148  A    between atoms: _370  and  _372
REMARK  149  A    between atoms: _372  and  _373
REMARK  150  A    between atoms: _376  and  _378
REMARK  151  A    between atoms: _378  and  _379
REMARK  152  A    between atoms: _378  and  _381
REMARK  153  A    between atoms: _381  and  _382
REMARK  154  A    between atoms: _385  and  _387
REMARK  155  A    between atoms: _387  and  _388
REMARK  156  A    between atoms: _387  and  _390
REMARK  157  A    between atoms: _390  and  _391
REMARK  158  A    between atoms: _394  and  _396
REMARK  159  A    between atoms: _396  and  _397
REMARK  160  A    between atoms: _396  and  _399
REMARK  161  A    between atoms: _399  and  _400
REMARK  162  A    between atoms: _403  and  _405
REMARK  163  A    between atoms: _405  and  _406
REMARK  164  A    between atoms: _405  and  _408
REMARK  165  A    between atoms: _411  and  _413
REMARK  166  A    between atoms: _413  and  _414
REMARK  167  A    between atoms: _413  and  _416
REMARK  168  A    between atoms: _416  and  _417
REMARK  169  A    between atoms: _417  and  _418
REMARK  170  A    between atoms: _420  and  _422
REMARK  171  A    between atoms: _422  and  _423
REMARK  172  A    between atoms: _422  and  _425
REMARK  173  A    between atoms: _425  and  _426
REMARK  174  A    between atoms: _429  and  _431
REMARK  175  A    between atoms: _431  and  _432
REMARK  176  A    between atoms: _434  and  _436
REMARK  177  A    between atoms: _436  and  _437
REMARK  178  A    between atoms: _439  and  _441
REMARK  179  A    between atoms: _441  and  _442
REMARK  180  A    between atoms: _441  and  _444
REMARK  181  A    between atoms: _444  and  _445
REMARK  182  A    between atoms: _448  and  _450
REMARK  183  A    between atoms: _450  and  _451
REMARK  184  A    between atoms: _453  and  _455
REMARK  185  A    between atoms: _455  and  _456
REMARK  186  A    between atoms: _458  and  _460
REMARK  187  A    between atoms: _460  and  _461
REMARK  188  A    between atoms: _460  and  _463
REMARK  189  A    between atoms: _463  and  _464
REMARK  190  A    between atoms: _470  and  _472
REMARK  191  A    between atoms: _472  and  _473
REMARK  192  A    between atoms: _472  and  _475
REMARK  193  A    between atoms: _475  and  _476
REMARK  194  A    between atoms: _479  and  _481
REMARK  195  A    between atoms: _481  and  _482
REMARK  196  A    between atoms: _481  and  _484
REMARK  197  A    between atoms: _487  and  _489
REMARK  198  A    between atoms: _489  and  _490
REMARK  199  A    between atoms: _489  and  _492
REMARK  200  A    between atoms: _492  and  _493
REMARK  201  A    between atoms: _496  and  _498
REMARK  202  A    between atoms: _498  and  _499
REMARK  203  A    between atoms: _498  and  _501
REMARK  204  A    between atoms: _501  and  _502
REMARK  205  A    between atoms: _506  and  _507
REMARK  206  A    between atoms: _512  and  _514
REMARK  207  A    between atoms: _514  and  _515
REMARK  208  A    between atoms: _514  and  _517
REMARK  209  A    between atoms: _520  and  _522
REMARK  210  A    between atoms: _522  and  _523
REMARK  211  A    between atoms: _522  and  _525
REMARK  212  A    between atoms: _525  and  _526
REMARK  213  A    between atoms: _531  and  _533
REMARK  214  A    between atoms: _533  and  _534
REMARK  215  A    between atoms: _533  and  _536
REMARK  216  A    between atoms: _536  and  _537
REMARK  217  A    between atoms: _540  and  _542
REMARK  218  A    between atoms: _542  and  _543
REMARK  219  A    between atoms: _542  and  _545
REMARK  220  A    between atoms: _545  and  _546
REMARK  221  A    between atoms: _549  and  _551
REMARK  222  A    between atoms: _551  and  _552
REMARK  223  A    between atoms: _554  and  _556
REMARK  224  A    between atoms: _556  and  _557
REMARK  225  A    between atoms: _556  and  _559
REMARK  226  A    between atoms: _559  and  _560
REMARK  227  A    between atoms: _560  and  _561
REMARK  228  A    between atoms: _561  and  _562
REMARK                            x       y       z     vdW  Elec       q    Type
REMARK                         _______ _______ _______ _____ _____    ______ ____
ROOT
ATOM      1  O   HOH     1       0.696   4.327   8.663  0.00  0.00    +0.000 OA
ENDROOT
TORSDOF 0
REMARK  Name = ../refined-set-2016/1dif/1dif_pocket.pdb
REMARK  228 active torsions:
REMARK  status: ('A' for Active; 'I' for Inactive)
REMARK    1  A    between atoms: _1  and  _3
REMARK    2  A    between atoms: _3  and  _4
REMARK    3  A    between atoms: _3  and  _6
REMARK    4  A    between atoms: _6  and  _7
REMARK    5  A    between atoms: _7  and  _8
REMARK    6  A    between atoms: _8  and  _9
REMARK    7  A    between atoms: _19  and  _20
REMARK    8  A    between atoms: _25  and  _27
REMARK    9  A    between atoms: _27  and  _28
REMARK   10  A    between atoms: _27  and  _30
REMARK   11  A    between atoms: _30  and  _31
REMARK   12  A    between atoms: _34  and  _36
REMARK   13  A    between atoms: _36  and  _37
REMARK   14  A    between atoms: _36  and  _39
REMARK   15  A    between atoms: _39  and  _40
REMARK   16  A    between atoms: _43  and  _45
REMARK   17  A    between atoms: _45  and  _46
REMARK   18  A    between atoms: _45  and  _48
REMARK   19  A    between atoms: _48  and  _49
REMARK   20  A    between atoms: _52  and  _54
REMARK   21  A    between atoms: _54  and  _55
REMARK   22  A    between atoms: _54  and  _57
REMARK   23  A    between atoms: _57  and  _58
REMARK   24  A    between atoms: _61  and  _63
REMARK   25  A    between atoms: _63  and  _64
REMARK   26  A    between atoms: _63  and  _66
REMARK   27  A    between atoms: _66  and  _67
REMARK   28  A    between atoms: _70  and  _72
REMARK   29  A    between atoms: _72  and  _73
REMARK   30  A    between atoms: _75  and  _77
REMARK   31  A    between atoms: _77  and  _78
REMARK   32  A    between atoms: _81  and  _83
REMARK   33  A    between atoms: _83  and  _84
REMARK   34  A    between atoms: _83  and  _86
REMARK   35  A    between atoms: _86  and  _87
REMARK   36  A    between atoms: _90  and  _92
REMARK   37  A    between atoms: _92  and  _93
REMARK   38  A    between atoms: _92  and  _95
REMARK   39  A    between atoms: _95  and  _96
REMARK   40  A    between atoms: _99  and  _101
REMARK   41  A    between atoms: _101  and  _102
REMARK   42  A    between atoms: _101  and  _104
REMARK   43  A    between atoms: _104  and  _105
REMARK   44  A    between atoms: _108  and  _110
REMARK   45  A    between atoms: _110  and  _111
REMARK   46  A    between atoms: _110  and  _113
REMARK   47  A    between atoms: _116  and  _118
REMARK   48  A    between atoms: _118  and  _119
REMARK   49  A    between atoms: _118  and  _121
REMARK   50  A    between atoms: _121  and  _122
REMARK   51  A    between atoms: _122  and  _123
REMARK   52  A    between atoms: _123  and  _124
REMARK   53  A    between atoms: _124  and  _125
REMARK   54  A    between atoms: _129  and  _131
REMARK   55  A    between atoms: _131  and  _132
REMARK   56  A    between atoms: _131  and  _134
REMARK   57  A    between atoms: _134  and  _135
REMARK   58  A    between atoms: _135  and  _136
REMARK   59  A    between atoms: _138  and  _140
REMARK   60  A    between atoms: _140  and  _141
REMARK   61  A    between atoms: _140  and  _143
REMARK   62  A    between atoms: _143  and  _144
REMARK   63  A    between atoms: _147  and  _149
REMARK   64  A    between atoms: _149  and  _150
REMARK   65  A    between atoms: _152  and  _154
REMARK   66  A    between atoms: _154  and  _155
REMARK   67  A    between atoms: _157  and  _159
REMARK   68  A    between atoms: _159  and  _160
REMARK   69  A    between atoms: _159  and  _162
REMARK   70  A    between atoms: _162  and  _163
REMARK   71  A    between atoms: _166  and  _168
REMARK   72  A    between atoms: _168  and  _169
REMARK   73  A    between atoms: _171  and  _173
REMARK   74  A    between atoms: _173  and  _174
REMARK   75  A    between atoms: _176  and  _178
REMARK   76  A    between atoms: _178  and  _179
REMARK   77  A    between atoms: _178  and  _181
REMARK   78  A    between atoms: _181  and  _182
REMARK   79  A    between atoms: _188  and  _190
REMARK   80  A    between atoms: _190  and  _191
REMARK   81  A    between atoms: _190  and  _193
REMARK   82  A    between atoms: _193  and  _194
REMARK   83  A    between atoms: _197  and  _199
REMARK   84  A    between atoms: _199  and  _200
REMARK   85  A    between atoms: _199  and  _202
REMARK   86  A    between atoms: _205  and  _207
REMARK   87  A    between atoms: _207  and  _208
REMARK   88  A    between atoms: _207  and  _210
REMARK   89  A    between atoms: _210  and  _211
REMARK   90  A    between atoms: _215  and  _216
REMARK   91  A    between atoms: _221  and  _223
REMARK   92  A    between atoms: _223  and  _224
REMARK   93  A    between atoms: _223  and  _226
REMARK   94  A    between atoms: _226  and  _227
REMARK   95  A    between atoms: _231  and  _232
REMARK   96  A    between atoms: _237  and  _239
REMARK   97  A    between atoms: _239  and  _240
REMARK   98  A    between atoms: _239  and  _242
REMARK   99  A    between atoms: _245  and  _247
REMARK  100  A    between atoms: _247  and  _248
REMARK  101  A    between atoms: _247  and  _250
REMARK  102  A    between atoms: _250  and  _251
REMARK  103  A    between atoms: _256  and  _258
REMARK  104  A    between atoms: _258  and  _259
REMARK  105  A    between atoms: _258  and  _261
REMARK  106  A    between atoms: _261  and  _262
REMARK  107  A    between atoms: _265  and  _267
REMARK  108  A    between atoms: _267  and  _268
REMARK  109  A    between atoms: _267  and  _270
REMARK  110  A    between atoms: _270  and  _271
REMARK  111  A    between atoms: _274  and  _276
REMARK  112  A    between atoms: _276  and  _277
REMARK  113  A    between atoms: _279  and  _281
REMARK  114  A    between atoms: _281  and  _282
REMARK  115  A    between atoms: _281  and  _284
REMARK  116  A    between atoms: _284  and  _285
REMARK  117  A    between atoms: _285  and  _286
REMARK  118  A    between atoms: _286  and  _287
REMARK  119  A    between atoms: _296  and  _298
REMARK  120  A    between atoms: _298  and  _299
REMARK  121  A    between atoms: _298  and  _301
REMARK  122  A    between atoms: _301  and  _302
REMARK  123  A    between atoms: _302  and  _303
REMARK  124  A    between atoms: _303  and  _304
REMARK  125  A    between atoms: _314  and  _315
REMARK  126  A    between atoms: _320  and  _322
REMARK  127  A    between atoms: _322  and  _323
REMARK  128  A    between atoms: _322  and  _325
REMARK  129  A    between atoms: _325  and  _326
REMARK  130  A    between atoms: _329  and  _331
REMARK  131  A    between atoms: _331  and  _332
REMARK  132  A    between atoms: _331  and  _334
REMARK  133  A    between atoms: _334  and  _335
REMARK  134  A    between atoms: _338  and  _340
REMARK  135  A    between atoms: _340  and  _341
REMARK  136  A    between atoms: _340  and  _343
REMARK  137  A    between atoms: _343  and  _344
REMARK  138  A    between atoms: _347  and  _349
REMARK  139  A    between atoms: _349  and  _350
REMARK  140  A    between atoms: _349  and  _352
REMARK  141  A    between atoms: _352  and  _353
REMARK  142  A    between atoms: _356  and  _358
REMARK  143  A    between atoms: _358  and  _359
REMARK  144  A    between atoms: _358  and  _361
REMARK  145  A    between atoms: _361  and  _362
REMARK  146  A    between atoms: _365  and  _367
REMARK  147  A    between atoms: _367  and  _368
REMARK  148  A    between atoms: _370  and  _372
REMARK  149  A    between atoms: _372  and  _373
REMARK  150  A    between atoms: _376  and  _378
REMARK  151  A    between atoms: _378  and  _379
REMARK  152  A    between atoms: _378  and  _381
REMARK  153  A    between atoms: _381  and  _382
REMARK  154  A    between atoms: _385  and  _387
REMARK  155  A    between atoms: _387  and  _388
REMARK  156  A    between atoms: _387  and  _390
REMARK  157  A    between atoms: _390  and  _391
REMARK  158  A    between atoms: _394  and  _396
REMARK  159  A    between atoms: _396  and  _397
REMARK  160  A    between atoms: _396  and  _399
REMARK  161  A    between atoms: _399  and  _400
REMARK  162  A    between atoms: _403  and  _405
REMARK  163  A    between atoms: _405  and  _406
REMARK  164  A    between atoms: _405  and  _408
REMARK  165  A    between atoms: _411  and  _413
REMARK  166  A    between atoms: _413  and  _414
REMARK  167  A    between atoms: _413  and  _416
REMARK  168  A    between atoms: _416  and  _417
REMARK  169  A    between atoms: _417  and  _418
REMARK  170  A    between atoms: _420  and  _422
REMARK  171  A    between atoms: _422  and  _423
REMARK  172  A    between atoms: _422  and  _425
REMARK  173  A    between atoms: _425  and  _426
REMARK  174  A    between atoms: _429  and  _431
REMARK  175  A    between atoms: _431  and  _432
REMARK  176  A    between atoms: _434  and  _436
REMARK  177  A    between atoms: _436  and  _437
REMARK  178  A    between atoms: _439  and  _441
REMARK  179  A    between atoms: _441  and  _442
REMARK  180  A    between atoms: _441  and  _444
REMARK  181  A    between atoms: _444  and  _445
REMARK  182  A    between atoms: _448  and  _450
REMARK  183  A    between atoms: _450  and  _451
REMARK  184  A    between atoms: _453  and  _455
REMARK  185  A    between atoms: _455  and  _456
REMARK  186  A    between atoms: _458  and  _460
REMARK  187  A    between atoms: _460  and  _461
REMARK  188  A    between atoms: _460  and  _463
REMARK  189  A    between atoms: _463  and  _464
REMARK  190  A    between atoms: _470  and  _472
REMARK  191  A    between atoms: _472  and  _473
REMARK  192  A    between atoms: _472  and  _475
REMARK  193  A    between atoms: _475  and  _476
REMARK  194  A    between atoms: _479  and  _481
REMARK  195  A    between atoms: _481  and  _482
REMARK  196  A    between atoms: _481  and  _484
REMARK  197  A    between atoms: _487  and  _489
REMARK  198  A    between atoms: _489  and  _490
REMARK  199  A    between atoms: _489  and  _492
REMARK  200  A    between atoms: _492  and  _493
REMARK  201  A    between atoms: _496  and  _498
REMARK  202  A    between atoms: _498  and  _499
REMARK  203  A    between atoms: _498  and  _501
REMARK  204  A    between atoms: _501  and  _502
REMARK  205  A    between atoms: _506  and  _507
REMARK  206  A    between atoms: _512  and  _514
REMARK  207  A    between atoms: _514  and  _515
REMARK  208  A    between atoms: _514  and  _517
REMARK  209  A    between atoms: _520  and  _522
REMARK  210  A    between atoms: _522  and  _523
REMARK  211  A    between atoms: _522  and  _525
REMARK  212  A    between atoms: _525  and  _526
REMARK  213  A    between atoms: _531  and  _533
REMARK  214  A    between atoms: _533  and  _534
REMARK  215  A    between atoms: _533  and  _536
REMARK  216  A    between atoms: _536  and  _537
REMARK  217  A    between atoms: _540  and  _542
REMARK  218  A    between atoms: _542  and  _543
REMARK  219  A    between atoms: _542  and  _545
REMARK  220  A    between atoms: _545  and  _546
REMARK  221  A    between atoms: _549  and  _551
REMARK  222  A    between atoms: _551  and  _552
REMARK  223  A    between atoms: _554  and  _556
REMARK  224  A    between atoms: _556  and  _557
REMARK  225  A    between atoms: _556  and  _559
REMARK  226  A    between atoms: _559  and  _560
REMARK  227  A    between atoms: _560  and  _561
REMARK  228  A    between atoms: _561  and  _562
REMARK                            x       y       z     vdW  Elec       q    Type
REMARK                         _______ _______ _______ _____ _____    ______ ____
ROOT
ATOM      1  O   HOH     1       0.611  10.542  10.073  0.00  0.00    +0.000 OA
ENDROOT
TORSDOF 0
REMARK  Name = ../refined-set-2016/1dif/1dif_pocket.pdb
REMARK  228 active torsions:
REMARK  status: ('A' for Active; 'I' for Inactive)
REMARK    1  A    between atoms: _1  and  _3
REMARK    2  A    between atoms: _3  and  _4
REMARK    3  A    between atoms: _3  and  _6
REMARK    4  A    between atoms: _6  and  _7
REMARK    5  A    between atoms: _7  and  _8
REMARK    6  A    between atoms: _8  and  _9
REMARK    7  A    between atoms: _19  and  _20
REMARK    8  A    between atoms: _25  and  _27
REMARK    9  A    between atoms: _27  and  _28
REMARK   10  A    between atoms: _27  and  _30
REMARK   11  A    between atoms: _30  and  _31
REMARK   12  A    between atoms: _34  and  _36
REMARK   13  A    between atoms: _36  and  _37
REMARK   14  A    between atoms: _36  and  _39
REMARK   15  A    between atoms: _39  and  _40
REMARK   16  A    between atoms: _43  and  _45
REMARK   17  A    between atoms: _45  and  _46
REMARK   18  A    between atoms: _45  and  _48
REMARK   19  A    between atoms: _48  and  _49
REMARK   20  A    between atoms: _52  and  _54
REMARK   21  A    between atoms: _54  and  _55
REMARK   22  A    between atoms: _54  and  _57
REMARK   23  A    between atoms: _57  and  _58
REMARK   24  A    between atoms: _61  and  _63
REMARK   25  A    between atoms: _63  and  _64
REMARK   26  A    between atoms: _63  and  _66
REMARK   27  A    between atoms: _66  and  _67
REMARK   28  A    between atoms: _70  and  _72
REMARK   29  A    between atoms: _72  and  _73
REMARK   30  A    between atoms: _75  and  _77
REMARK   31  A    between atoms: _77  and  _78
REMARK   32  A    between atoms: _81  and  _83
REMARK   33  A    between atoms: _83  and  _84
REMARK   34  A    between atoms: _83  and  _86
REMARK   35  A    between atoms: _86  and  _87
REMARK   36  A    between atoms: _90  and  _92
REMARK   37  A    between atoms: _92  and  _93
REMARK   38  A    between atoms: _92  and  _95
REMARK   39  A    between atoms: _95  and  _96
REMARK   40  A    between atoms: _99  and  _101
REMARK   41  A    between atoms: _101  and  _102
REMARK   42  A    between atoms: _101  and  _104
REMARK   43  A    between atoms: _104  and  _105
REMARK   44  A    between atoms: _108  and  _110
REMARK   45  A    between atoms: _110  and  _111
REMARK   46  A    between atoms: _110  and  _113
REMARK   47  A    between atoms: _116  and  _118
REMARK   48  A    between atoms: _118  and  _119
REMARK   49  A    between atoms: _118  and  _121
REMARK   50  A    between atoms: _121  and  _122
REMARK   51  A    between atoms: _122  and  _123
REMARK   52  A    between atoms: _123  and  _124
REMARK   53  A    between atoms: _124  and  _125
REMARK   54  A    between atoms: _129  and  _131
REMARK   55  A    between atoms: _131  and  _132
REMARK   56  A    between atoms: _131  and  _134
REMARK   57  A    between atoms: _134  and  _135
REMARK   58  A    between atoms: _135  and  _136
REMARK   59  A    between atoms: _138  and  _140
REMARK   60  A    between atoms: _140  and  _141
REMARK   61  A    between atoms: _140  and  _143
REMARK   62  A    between atoms: _143  and  _144
REMARK   63  A    between atoms: _147  and  _149
REMARK   64  A    between atoms: _149  and  _150
REMARK   65  A    between atoms: _152  and  _154
REMARK   66  A    between atoms: _154  and  _155
REMARK   67  A    between atoms: _157  and  _159
REMARK   68  A    between atoms: _159  and  _160
REMARK   69  A    between atoms: _159  and  _162
REMARK   70  A    between atoms: _162  and  _163
REMARK   71  A    between atoms: _166  and  _168
REMARK   72  A    between atoms: _168  and  _169
REMARK   73  A    between atoms: _171  and  _173
REMARK   74  A    between atoms: _173  and  _174
REMARK   75  A    between atoms: _176  and  _178
REMARK   76  A    between atoms: _178  and  _179
REMARK   77  A    between atoms: _178  and  _181
REMARK   78  A    between atoms: _181  and  _182
REMARK   79  A    between atoms: _188  and  _190
REMARK   80  A    between atoms: _190  and  _191
REMARK   81  A    between atoms: _190  and  _193
REMARK   82  A    between atoms: _193  and  _194
REMARK   83  A    between atoms: _197  and  _199
REMARK   84  A    between atoms: _199  and  _200
REMARK   85  A    between atoms: _199  and  _202
REMARK   86  A    between atoms: _205  and  _207
REMARK   87  A    between atoms: _207  and  _208
REMARK   88  A    between atoms: _207  and  _210
REMARK   89  A    between atoms: _210  and  _211
REMARK   90  A    between atoms: _215  and  _216
REMARK   91  A    between atoms: _221  and  _223
REMARK   92  A    between atoms: _223  and  _224
REMARK   93  A    between atoms: _223  and  _226
REMARK   94  A    between atoms: _226  and  _227
REMARK   95  A    between atoms: _231  and  _232
REMARK   96  A    between atoms: _237  and  _239
REMARK   97  A    between atoms: _239  and  _240
REMARK   98  A    between atoms: _239  and  _242
REMARK   99  A    between atoms: _245  and  _247
REMARK  100  A    between atoms: _247  and  _248
REMARK  101  A    between atoms: _247  and  _250
REMARK  102  A    between atoms: _250  and  _251
REMARK  103  A    between atoms: _256  and  _258
REMARK  104  A    between atoms: _258  and  _259
REMARK  105  A    between atoms: _258  and  _261
REMARK  106  A    between atoms: _261  and  _262
REMARK  107  A    between atoms: _265  and  _267
REMARK  108  A    between atoms: _267  and  _268
REMARK  109  A    between atoms: _267  and  _270
REMARK  110  A    between atoms: _270  and  _271
REMARK  111  A    between atoms: _274  and  _276
REMARK  112  A    between atoms: _276  and  _277
REMARK  113  A    between atoms: _279  and  _281
REMARK  114  A    between atoms: _281  and  _282
REMARK  115  A    between atoms: _281  and  _284
REMARK  116  A    between atoms: _284  and  _285
REMARK  117  A    between atoms: _285  and  _286
REMARK  118  A    between atoms: _286  and  _287
REMARK  119  A    between atoms: _296  and  _298
REMARK  120  A    between atoms: _298  and  _299
REMARK  121  A    between atoms: _298  and  _301
REMARK  122  A    between atoms: _301  and  _302
REMARK  123  A    between atoms: _302  and  _303
REMARK  124  A    between atoms: _303  and  _304
REMARK  125  A    between atoms: _314  and  _315
REMARK  126  A    between atoms: _320  and  _322
REMARK  127  A    between atoms: _322  and  _323
REMARK  128  A    between atoms: _322  and  _325
REMARK  129  A    between atoms: _325  and  _326
REMARK  130  A    between atoms: _329  and  _331
REMARK  131  A    between atoms: _331  and  _332
REMARK  132  A    between atoms: _331  and  _334
REMARK  133  A    between atoms: _334  and  _335
REMARK  134  A    between atoms: _338  and  _340
REMARK  135  A    between atoms: _340  and  _341
REMARK  136  A    between atoms: _340  and  _343
REMARK  137  A    between atoms: _343  and  _344
REMARK  138  A    between atoms: _347  and  _349
REMARK  139  A    between atoms: _349  and  _350
REMARK  140  A    between atoms: _349  and  _352
REMARK  141  A    between atoms: _352  and  _353
REMARK  142  A    between atoms: _356  and  _358
REMARK  143  A    between atoms: _358  and  _359
REMARK  144  A    between atoms: _358  and  _361
REMARK  145  A    between atoms: _361  and  _362
REMARK  146  A    between atoms: _365  and  _367
REMARK  147  A    between atoms: _367  and  _368
REMARK  148  A    between atoms: _370  and  _372
REMARK  149  A    between atoms: _372  and  _373
REMARK  150  A    between atoms: _376  and  _378
REMARK  151  A    between atoms: _378  and  _379
REMARK  152  A    between atoms: _378  and  _381
REMARK  153  A    between atoms: _381  and  _382
REMARK  154  A    between atoms: _385  and  _387
REMARK  155  A    between atoms: _387  and  _388
REMARK  156  A    between atoms: _387  and  _390
REMARK  157  A    between atoms: _390  and  _391
REMARK  158  A    between atoms: _394  and  _396
REMARK  159  A    between atoms: _396  and  _397
REMARK  160  A    between atoms: _396  and  _399
REMARK  161  A    between atoms: _399  and  _400
REMARK  162  A    between atoms: _403  and  _405
REMARK  163  A    between atoms: _405  and  _406
REMARK  164  A    between atoms: _405  and  _408
REMARK  165  A    between atoms: _411  and  _413
REMARK  166  A    between atoms: _413  and  _414
REMARK  167  A    between atoms: _413  and  _416
REMARK  168  A    between atoms: _416  and  _417
REMARK  169  A    between atoms: _417  and  _418
REMARK  170  A    between atoms: _420  and  _422
REMARK  171  A    between atoms: _422  and  _423
REMARK  172  A    between atoms: _422  and  _425
REMARK  173  A    between atoms: _425  and  _426
REMARK  174  A    between atoms: _429  and  _431
REMARK  175  A    between atoms: _431  and  _432
REMARK  176  A    between atoms: _434  and  _436
REMARK  177  A    between atoms: _436  and  _437
REMARK  178  A    between atoms: _439  and  _441
REMARK  179  A    between atoms: _441  and  _442
REMARK  180  A    between atoms: _441  and  _444
REMARK  181  A    between atoms: _444  and  _445
REMARK  182  A    between atoms: _448  and  _450
REMARK  183  A    between atoms: _450  and  _451
REMARK  184  A    between atoms: _453  and  _455
REMARK  185  A    between atoms: _455  and  _456
REMARK  186  A    between atoms: _458  and  _460
REMARK  187  A    between atoms: _460  and  _461
REMARK  188  A    between atoms: _460  and  _463
REMARK  189  A    between atoms: _463  and  _464
REMARK  190  A    between atoms: _470  and  _472
REMARK  191  A    between atoms: _472  and  _473
REMARK  192  A    between atoms: _472  and  _475
REMARK  193  A    between atoms: _475  and  _476
REMARK  194  A    between atoms: _479  and  _481
REMARK  195  A    between atoms: _481  and  _482
REMARK  196  A    between atoms: _481  and  _484
REMARK  197  A    between atoms: _487  and  _489
REMARK  198  A    between atoms: _489  and  _490
REMARK  199  A    between atoms: _489  and  _492
REMARK  200  A    between atoms: _492  and  _493
REMARK  201  A    between atoms: _496  and  _498
REMARK  202  A    between atoms: _498  and  _499
REMARK  203  A    between atoms: _498  and  _501
REMARK  204  A    between atoms: _501  and  _502
REMARK  205  A    between atoms: _506  and  _507
REMARK  206  A    between atoms: _512  and  _514
REMARK  207  A    between atoms: _514  and  _515
REMARK  208  A    between atoms: _514  and  _517
REMARK  209  A    between atoms: _520  and  _522
REMARK  210  A    between atoms: _522  and  _523
REMARK  211  A    between atoms: _522  and  _525
REMARK  212  A    between atoms: _525  and  _526
REMARK  213  A    between atoms: _531  and  _533
REMARK  214  A    between atoms: _533  and  _534
REMARK  215  A    between atoms: _533  and  _536
REMARK  216  A    between atoms: _536  and  _537
REMARK  217  A    between atoms: _540  and  _542
REMARK  218  A    between atoms: _542  and  _543
REMARK  219  A    between atoms: _542  and  _545
REMARK  220  A    between atoms: _545  and  _546
REMARK  221  A    between atoms: _549  and  _551
REMARK  222  A    between atoms: _551  and  _552
REMARK  223  A    between atoms: _554  and  _556
REMARK  224  A    between atoms: _556  and  _557
REMARK  225  A    between atoms: _556  and  _559
REMARK  226  A    between atoms: _559  and  _560
REMARK  227  A    between atoms: _560  and  _561
REMARK  228  A    between atoms: _561  and  _562
REMARK                            x       y       z     vdW  Elec       q    Type
REMARK                         _______ _______ _______ _____ _____    ______ ____
ROOT
ATOM      1  O   HOH     1       1.106   7.153   8.008  0.00  0.00    +0.000 OA
ENDROOT
TORSDOF 0
REMARK  Name = ../refined-set-2016/1dif/1dif_pocket.pdb
REMARK  228 active torsions:
REMARK  status: ('A' for Active; 'I' for Inactive)
REMARK    1  A    between atoms: _1  and  _3
REMARK    2  A    between atoms: _3  and  _4
REMARK    3  A    between atoms: _3  and  _6
REMARK    4  A    between atoms: _6  and  _7
REMARK    5  A    between atoms: _7  and  _8
REMARK    6  A    between atoms: _8  and  _9
REMARK    7  A    between atoms: _19  and  _20
REMARK    8  A    between atoms: _25  and  _27
REMARK    9  A    between atoms: _27  and  _28
REMARK   10  A    between atoms: _27  and  _30
REMARK   11  A    between atoms: _30  and  _31
REMARK   12  A    between atoms: _34  and  _36
REMARK   13  A    between atoms: _36  and  _37
REMARK   14  A    between atoms: _36  and  _39
REMARK   15  A    between atoms: _39  and  _40
REMARK   16  A    between atoms: _43  and  _45
REMARK   17  A    between atoms: _45  and  _46
REMARK   18  A    between atoms: _45  and  _48
REMARK   19  A    between atoms: _48  and  _49
REMARK   20  A    between atoms: _52  and  _54
REMARK   21  A    between atoms: _54  and  _55
REMARK   22  A    between atoms: _54  and  _57
REMARK   23  A    between atoms: _57  and  _58
REMARK   24  A    between atoms: _61  and  _63
REMARK   25  A    between atoms: _63  and  _64
REMARK   26  A    between atoms: _63  and  _66
REMARK   27  A    between atoms: _66  and  _67
REMARK   28  A    between atoms: _70  and  _72
REMARK   29  A    between atoms: _72  and  _73
REMARK   30  A    between atoms: _75  and  _77
REMARK   31  A    between atoms: _77  and  _78
REMARK   32  A    between atoms: _81  and  _83
REMARK   33  A    between atoms: _83  and  _84
REMARK   34  A    between atoms: _83  and  _86
REMARK   35  A    between atoms: _86  and  _87
REMARK   36  A    between atoms: _90  and  _92
REMARK   37  A    between atoms: _92  and  _93
REMARK   38  A    between atoms: _92  and  _95
REMARK   39  A    between atoms: _95  and  _96
REMARK   40  A    between atoms: _99  and  _101
REMARK   41  A    between atoms: _101  and  _102
REMARK   42  A    between atoms: _101  and  _104
REMARK   43  A    between atoms: _104  and  _105
REMARK   44  A    between atoms: _108  and  _110
REMARK   45  A    between atoms: _110  and  _111
REMARK   46  A    between atoms: _110  and  _113
REMARK   47  A    between atoms: _116  and  _118
REMARK   48  A    between atoms: _118  and  _119
REMARK   49  A    between atoms: _118  and  _121
REMARK   50  A    between atoms: _121  and  _122
REMARK   51  A    between atoms: _122  and  _123
REMARK   52  A    between atoms: _123  and  _124
REMARK   53  A    between atoms: _124  and  _125
REMARK   54  A    between atoms: _129  and  _131
REMARK   55  A    between atoms: _131  and  _132
REMARK   56  A    between atoms: _131  and  _134
REMARK   57  A    between atoms: _134  and  _135
REMARK   58  A    between atoms: _135  and  _136
REMARK   59  A    between atoms: _138  and  _140
REMARK   60  A    between atoms: _140  and  _141
REMARK   61  A    between atoms: _140  and  _143
REMARK   62  A    between atoms: _143  and  _144
REMARK   63  A    between atoms: _147  and  _149
REMARK   64  A    between atoms: _149  and  _150
REMARK   65  A    between atoms: _152  and  _154
REMARK   66  A    between atoms: _154  and  _155
REMARK   67  A    between atoms: _157  and  _159
REMARK   68  A    between atoms: _159  and  _160
REMARK   69  A    between atoms: _159  and  _162
REMARK   70  A    between atoms: _162  and  _163
REMARK   71  A    between atoms: _166  and  _168
REMARK   72  A    between atoms: _168  and  _169
REMARK   73  A    between atoms: _171  and  _173
REMARK   74  A    between atoms: _173  and  _174
REMARK   75  A    between atoms: _176  and  _178
REMARK   76  A    between atoms: _178  and  _179
REMARK   77  A    between atoms: _178  and  _181
REMARK   78  A    between atoms: _181  and  _182
REMARK   79  A    between atoms: _188  and  _190
REMARK   80  A    between atoms: _190  and  _191
REMARK   81  A    between atoms: _190  and  _193
REMARK   82  A    between atoms: _193  and  _194
REMARK   83  A    between atoms: _197  and  _199
REMARK   84  A    between atoms: _199  and  _200
REMARK   85  A    between atoms: _199  and  _202
REMARK   86  A    between atoms: _205  and  _207
REMARK   87  A    between atoms: _207  and  _208
REMARK   88  A    between atoms: _207  and  _210
REMARK   89  A    between atoms: _210  and  _211
REMARK   90  A    between atoms: _215  and  _216
REMARK   91  A    between atoms: _221  and  _223
REMARK   92  A    between atoms: _223  and  _224
REMARK   93  A    between atoms: _223  and  _226
REMARK   94  A    between atoms: _226  and  _227
REMARK   95  A    between atoms: _231  and  _232
REMARK   96  A    between atoms: _237  and  _239
REMARK   97  A    between atoms: _239  and  _240
REMARK   98  A    between atoms: _239  and  _242
REMARK   99  A    between atoms: _245  and  _247
REMARK  100  A    between atoms: _247  and  _248
REMARK  101  A    between atoms: _247  and  _250
REMARK  102  A    between atoms: _250  and  _251
REMARK  103  A    between atoms: _256  and  _258
REMARK  104  A    between atoms: _258  and  _259
REMARK  105  A    between atoms: _258  and  _261
REMARK  106  A    between atoms: _261  and  _262
REMARK  107  A    between atoms: _265  and  _267
REMARK  108  A    between atoms: _267  and  _268
REMARK  109  A    between atoms: _267  and  _270
REMARK  110  A    between atoms: _270  and  _271
REMARK  111  A    between atoms: _274  and  _276
REMARK  112  A    between atoms: _276  and  _277
REMARK  113  A    between atoms: _279  and  _281
REMARK  114  A    between atoms: _281  and  _282
REMARK  115  A    between atoms: _281  and  _284
REMARK  116  A    between atoms: _284  and  _285
REMARK  117  A    between atoms: _285  and  _286
REMARK  118  A    between atoms: _286  and  _287
REMARK  119  A    between atoms: _296  and  _298
REMARK  120  A    between atoms: _298  and  _299
REMARK  121  A    between atoms: _298  and  _301
REMARK  122  A    between atoms: _301  and  _302
REMARK  123  A    between atoms: _302  and  _303
REMARK  124  A    between atoms: _303  and  _304
REMARK  125  A    between atoms: _314  and  _315
REMARK  126  A    between atoms: _320  and  _322
REMARK  127  A    between atoms: _322  and  _323
REMARK  128  A    between atoms: _322  and  _325
REMARK  129  A    between atoms: _325  and  _326
REMARK  130  A    between atoms: _329  and  _331
REMARK  131  A    between atoms: _331  and  _332
REMARK  132  A    between atoms: _331  and  _334
REMARK  133  A    between atoms: _334  and  _335
REMARK  134  A    between atoms: _338  and  _340
REMARK  135  A    between atoms: _340  and  _341
REMARK  136  A    between atoms: _340  and  _343
REMARK  137  A    between atoms: _343  and  _344
REMARK  138  A    between atoms: _347  and  _349
REMARK  139  A    between atoms: _349  and  _350
REMARK  140  A    between atoms: _349  and  _352
REMARK  141  A    between atoms: _352  and  _353
REMARK  142  A    between atoms: _356  and  _358
REMARK  143  A    between atoms: _358  and  _359
REMARK  144  A    between atoms: _358  and  _361
REMARK  145  A    between atoms: _361  and  _362
REMARK  146  A    between atoms: _365  and  _367
REMARK  147  A    between atoms: _367  and  _368
REMARK  148  A    between atoms: _370  and  _372
REMARK  149  A    between atoms: _372  and  _373
REMARK  150  A    between atoms: _376  and  _378
REMARK  151  A    between atoms: _378  and  _379
REMARK  152  A    between atoms: _378  and  _381
REMARK  153  A    between atoms: _381  and  _382
REMARK  154  A    between atoms: _385  and  _387
REMARK  155  A    between atoms: _387  and  _388
REMARK  156  A    between atoms: _387  and  _390
REMARK  157  A    between atoms: _390  and  _391
REMARK  158  A    between atoms: _394  and  _396
REMARK  159  A    between atoms: _396  and  _397
REMARK  160  A    between atoms: _396  and  _399
REMARK  161  A    between atoms: _399  and  _400
REMARK  162  A    between atoms: _403  and  _405
REMARK  163  A    between atoms: _405  and  _406
REMARK  164  A    between atoms: _405  and  _408
REMARK  165  A    between atoms: _411  and  _413
REMARK  166  A    between atoms: _413  and  _414
REMARK  167  A    between atoms: _413  and  _416
REMARK  168  A    between atoms: _416  and  _417
REMARK  169  A    between atoms: _417  and  _418
REMARK  170  A    between atoms: _420  and  _422
REMARK  171  A    between atoms: _422  and  _423
REMARK  172  A    between atoms: _422  and  _425
REMARK  173  A    between atoms: _425  and  _426
REMARK  174  A    between atoms: _429  and  _431
REMARK  175  A    between atoms: _431  and  _432
REMARK  176  A    between atoms: _434  and  _436
REMARK  177  A    between atoms: _436  and  _437
REMARK  178  A    between atoms: _439  and  _441
REMARK  179  A    between atoms: _441  and  _442
REMARK  180  A    between atoms: _441  and  _444
REMARK  181  A    between atoms: _444  and  _445
REMARK  182  A    between atoms: _448  and  _450
REMARK  183  A    between atoms: _450  and  _451
REMARK  184  A    between atoms: _453  and  _455
REMARK  185  A    between atoms: _455  and  _456
REMARK  186  A    between atoms: _458  and  _460
REMARK  187  A    between atoms: _460  and  _461
REMARK  188  A    between atoms: _460  and  _463
REMARK  189  A    between atoms: _463  and  _464
REMARK  190  A    between atoms: _470  and  _472
REMARK  191  A    between atoms: _472  and  _473
REMARK  192  A    between atoms: _472  and  _475
REMARK  193  A    between atoms: _475  and  _476
REMARK  194  A    between atoms: _479  and  _481
REMARK  195  A    between atoms: _481  and  _482
REMARK  196  A    between atoms: _481  and  _484
REMARK  197  A    between atoms: _487  and  _489
REMARK  198  A    between atoms: _489  and  _490
REMARK  199  A    between atoms: _489  and  _492
REMARK  200  A    between atoms: _492  and  _493
REMARK  201  A    between atoms: _496  and  _498
REMARK  202  A    between atoms: _498  and  _499
REMARK  203  A    between atoms: _498  and  _501
REMARK  204  A    between atoms: _501  and  _502
REMARK  205  A    between atoms: _506  and  _507
REMARK  206  A    between atoms: _512  and  _514
REMARK  207  A    between atoms: _514  and  _515
REMARK  208  A    between atoms: _514  and  _517
REMARK  209  A    between atoms: _520  and  _522
REMARK  210  A    between atoms: _522  and  _523
REMARK  211  A    between atoms: _522  and  _525
REMARK  212  A    between atoms: _525  and  _526
REMARK  213  A    between atoms: _531  and  _533
REMARK  214  A    between atoms: _533  and  _534
REMARK  215  A    between atoms: _533  and  _536
REMARK  216  A    between atoms: _536  and  _537
REMARK  217  A    between atoms: _540  and  _542
REMARK  218  A    between atoms: _542  and  _543
REMARK  219  A    between atoms: _542  and  _545
REMARK  220  A    between atoms: _545  and  _546
REMARK  221  A    between atoms: _549  and  _551
REMARK  222  A    between atoms: _551  and  _552
REMARK  223  A    between atoms: _554  and  _556
REMARK  224  A    between atoms: _556  and  _557
REMARK  225  A    between atoms: _556  and  _559
REMARK  226  A    between atoms: _559  and  _560
REMARK  227  A    between atoms: _560  and  _561
REMARK  228  A    between atoms: _561  and  _562
REMARK                            x       y       z     vdW  Elec       q    Type
REMARK                         _______ _______ _______ _____ _____    ______ ____
ROOT
ATOM      1  O   HOH     1      -3.334  -9.338  23.102  0.00  0.00    +0.000 OA
ENDROOT
TORSDOF 0
REMARK  Name = ../refined-set-2016/1dif/1dif_pocket.pdb
REMARK  228 active torsions:
REMARK  status: ('A' for Active; 'I' for Inactive)
REMARK    1  A    between atoms: _1  and  _3
REMARK    2  A    between atoms: _3  and  _4
REMARK    3  A    between atoms: _3  and  _6
REMARK    4  A    between atoms: _6  and  _7
REMARK    5  A    between atoms: _7  and  _8
REMARK    6  A    between atoms: _8  and  _9
REMARK    7  A    between atoms: _19  and  _20
REMARK    8  A    between atoms: _25  and  _27
REMARK    9  A    between atoms: _27  and  _28
REMARK   10  A    between atoms: _27  and  _30
REMARK   11  A    between atoms: _30  and  _31
REMARK   12  A    between atoms: _34  and  _36
REMARK   13  A    between atoms: _36  and  _37
REMARK   14  A    between atoms: _36  and  _39
REMARK   15  A    between atoms: _39  and  _40
REMARK   16  A    between atoms: _43  and  _45
REMARK   17  A    between atoms: _45  and  _46
REMARK   18  A    between atoms: _45  and  _48
REMARK   19  A    between atoms: _48  and  _49
REMARK   20  A    between atoms: _52  and  _54
REMARK   21  A    between atoms: _54  and  _55
REMARK   22  A    between atoms: _54  and  _57
REMARK   23  A    between atoms: _57  and  _58
REMARK   24  A    between atoms: _61  and  _63
REMARK   25  A    between atoms: _63  and  _64
REMARK   26  A    between atoms: _63  and  _66
REMARK   27  A    between atoms: _66  and  _67
REMARK   28  A    between atoms: _70  and  _72
REMARK   29  A    between atoms: _72  and  _73
REMARK   30  A    between atoms: _75  and  _77
REMARK   31  A    between atoms: _77  and  _78
REMARK   32  A    between atoms: _81  and  _83
REMARK   33  A    between atoms: _83  and  _84
REMARK   34  A    between atoms: _83  and  _86
REMARK   35  A    between atoms: _86  and  _87
REMARK   36  A    between atoms: _90  and  _92
REMARK   37  A    between atoms: _92  and  _93
REMARK   38  A    between atoms: _92  and  _95
REMARK   39  A    between atoms: _95  and  _96
REMARK   40  A    between atoms: _99  and  _101
REMARK   41  A    between atoms: _101  and  _102
REMARK   42  A    between atoms: _101  and  _104
REMARK   43  A    between atoms: _104  and  _105
REMARK   44  A    between atoms: _108  and  _110
REMARK   45  A    between atoms: _110  and  _111
REMARK   46  A    between atoms: _110  and  _113
REMARK   47  A    between atoms: _116  and  _118
REMARK   48  A    between atoms: _118  and  _119
REMARK   49  A    between atoms: _118  and  _121
REMARK   50  A    between atoms: _121  and  _122
REMARK   51  A    between atoms: _122  and  _123
REMARK   52  A    between atoms: _123  and  _124
REMARK   53  A    between atoms: _124  and  _125
REMARK   54  A    between atoms: _129  and  _131
REMARK   55  A    between atoms: _131  and  _132
REMARK   56  A    between atoms: _131  and  _134
REMARK   57  A    between atoms: _134  and  _135
REMARK   58  A    between atoms: _135  and  _136
REMARK   59  A    between atoms: _138  and  _140
REMARK   60  A    between atoms: _140  and  _141
REMARK   61  A    between atoms: _140  and  _143
REMARK   62  A    between atoms: _143  and  _144
REMARK   63  A    between atoms: _147  and  _149
REMARK   64  A    between atoms: _149  and  _150
REMARK   65  A    between atoms: _152  and  _154
REMARK   66  A    between atoms: _154  and  _155
REMARK   67  A    between atoms: _157  and  _159
REMARK   68  A    between atoms: _159  and  _160
REMARK   69  A    between atoms: _159  and  _162
REMARK   70  A    between atoms: _162  and  _163
REMARK   71  A    between atoms: _166  and  _168
REMARK   72  A    between atoms: _168  and  _169
REMARK   73  A    between atoms: _171  and  _173
REMARK   74  A    between atoms: _173  and  _174
REMARK   75  A    between atoms: _176  and  _178
REMARK   76  A    between atoms: _178  and  _179
REMARK   77  A    between atoms: _178  and  _181
REMARK   78  A    between atoms: _181  and  _182
REMARK   79  A    between atoms: _188  and  _190
REMARK   80  A    between atoms: _190  and  _191
REMARK   81  A    between atoms: _190  and  _193
REMARK   82  A    between atoms: _193  and  _194
REMARK   83  A    between atoms: _197  and  _199
REMARK   84  A    between atoms: _199  and  _200
REMARK   85  A    between atoms: _199  and  _202
REMARK   86  A    between atoms: _205  and  _207
REMARK   87  A    between atoms: _207  and  _208
REMARK   88  A    between atoms: _207  and  _210
REMARK   89  A    between atoms: _210  and  _211
REMARK   90  A    between atoms: _215  and  _216
REMARK   91  A    between atoms: _221  and  _223
REMARK   92  A    between atoms: _223  and  _224
REMARK   93  A    between atoms: _223  and  _226
REMARK   94  A    between atoms: _226  and  _227
REMARK   95  A    between atoms: _231  and  _232
REMARK   96  A    between atoms: _237  and  _239
REMARK   97  A    between atoms: _239  and  _240
REMARK   98  A    between atoms: _239  and  _242
REMARK   99  A    between atoms: _245  and  _247
REMARK  100  A    between atoms: _247  and  _248
REMARK  101  A    between atoms: _247  and  _250
REMARK  102  A    between atoms: _250  and  _251
REMARK  103  A    between atoms: _256  and  _258
REMARK  104  A    between atoms: _258  and  _259
REMARK  105  A    between atoms: _258  and  _261
REMARK  106  A    between atoms: _261  and  _262
REMARK  107  A    between atoms: _265  and  _267
REMARK  108  A    between atoms: _267  and  _268
REMARK  109  A    between atoms: _267  and  _270
REMARK  110  A    between atoms: _270  and  _271
REMARK  111  A    between atoms: _274  and  _276
REMARK  112  A    between atoms: _276  and  _277
REMARK  113  A    between atoms: _279  and  _281
REMARK  114  A    between atoms: _281  and  _282
REMARK  115  A    between atoms: _281  and  _284
REMARK  116  A    between atoms: _284  and  _285
REMARK  117  A    between atoms: _285  and  _286
REMARK  118  A    between atoms: _286  and  _287
REMARK  119  A    between atoms: _296  and  _298
REMARK  120  A    between atoms: _298  and  _299
REMARK  121  A    between atoms: _298  and  _301
REMARK  122  A    between atoms: _301  and  _302
REMARK  123  A    between atoms: _302  and  _303
REMARK  124  A    between atoms: _303  and  _304
REMARK  125  A    between atoms: _314  and  _315
REMARK  126  A    between atoms: _320  and  _322
REMARK  127  A    between atoms: _322  and  _323
REMARK  128  A    between atoms: _322  and  _325
REMARK  129  A    between atoms: _325  and  _326
REMARK  130  A    between atoms: _329  and  _331
REMARK  131  A    between atoms: _331  and  _332
REMARK  132  A    between atoms: _331  and  _334
REMARK  133  A    between atoms: _334  and  _335
REMARK  134  A    between atoms: _338  and  _340
REMARK  135  A    between atoms: _340  and  _341
REMARK  136  A    between atoms: _340  and  _343
REMARK  137  A    between atoms: _343  and  _344
REMARK  138  A    between atoms: _347  and  _349
REMARK  139  A    between atoms: _349  and  _350
REMARK  140  A    between atoms: _349  and  _352
REMARK  141  A    between atoms: _352  and  _353
REMARK  142  A    between atoms: _356  and  _358
REMARK  143  A    between atoms: _358  and  _359
REMARK  144  A    between atoms: _358  and  _361
REMARK  145  A    between atoms: _361  and  _362
REMARK  146  A    between atoms: _365  and  _367
REMARK  147  A    between atoms: _367  and  _368
REMARK  148  A    between atoms: _370  and  _372
REMARK  149  A    between atoms: _372  and  _373
REMARK  150  A    between atoms: _376  and  _378
REMARK  151  A    between atoms: _378  and  _379
REMARK  152  A    between atoms: _378  and  _381
REMARK  153  A    between atoms: _381  and  _382
REMARK  154  A    between atoms: _385  and  _387
REMARK  155  A    between atoms: _387  and  _388
REMARK  156  A    between atoms: _387  and  _390
REMARK  157  A    between atoms: _390  and  _391
REMARK  158  A    between atoms: _394  and  _396
REMARK  159  A    between atoms: _396  and  _397
REMARK  160  A    between atoms: _396  and  _399
REMARK  161  A    between atoms: _399  and  _400
REMARK  162  A    between atoms: _403  and  _405
REMARK  163  A    between atoms: _405  and  _406
REMARK  164  A    between atoms: _405  and  _408
REMARK  165  A    between atoms: _411  and  _413
REMARK  166  A    between atoms: _413  and  _414
REMARK  167  A    between atoms: _413  and  _416
REMARK  168  A    between atoms: _416  and  _417
REMARK  169  A    between atoms: _417  and  _418
REMARK  170  A    between atoms: _420  and  _422
REMARK  171  A    between atoms: _422  and  _423
REMARK  172  A    between atoms: _422  and  _425
REMARK  173  A    between atoms: _425  and  _426
REMARK  174  A    between atoms: _429  and  _431
REMARK  175  A    between atoms: _431  and  _432
REMARK  176  A    between atoms: _434  and  _436
REMARK  177  A    between atoms: _436  and  _437
REMARK  178  A    between atoms: _439  and  _441
REMARK  179  A    between atoms: _441  and  _442
REMARK  180  A    between atoms: _441  and  _444
REMARK  181  A    between atoms: _444  and  _445
REMARK  182  A    between atoms: _448  and  _450
REMARK  183  A    between atoms: _450  and  _451
REMARK  184  A    between atoms: _453  and  _455
REMARK  185  A    between atoms: _455  and  _456
REMARK  186  A    between atoms: _458  and  _460
REMARK  187  A    between atoms: _460  and  _461
REMARK  188  A    between atoms: _460  and  _463
REMARK  189  A    between atoms: _463  and  _464
REMARK  190  A    between atoms: _470  and  _472
REMARK  191  A    between atoms: _472  and  _473
REMARK  192  A    between atoms: _472  and  _475
REMARK  193  A    between atoms: _475  and  _476
REMARK  194  A    between atoms: _479  and  _481
REMARK  195  A    between atoms: _481  and  _482
REMARK  196  A    between atoms: _481  and  _484
REMARK  197  A    between atoms: _487  and  _489
REMARK  198  A    between atoms: _489  and  _490
REMARK  199  A    between atoms: _489  and  _492
REMARK  200  A    between atoms: _492  and  _493
REMARK  201  A    between atoms: _496  and  _498
REMARK  202  A    between atoms: _498  and  _499
REMARK  203  A    between atoms: _498  and  _501
REMARK  204  A    between atoms: _501  and  _502
REMARK  205  A    between atoms: _506  and  _507
REMARK  206  A    between atoms: _512  and  _514
REMARK  207  A    between atoms: _514  and  _515
REMARK  208  A    between atoms: _514  and  _517
REMARK  209  A    between atoms: _520  and  _522
REMARK  210  A    between atoms: _522  and  _523
REMARK  211  A    between atoms: _522  and  _525
REMARK  212  A    between atoms: _525  and  _526
REMARK  213  A    between atoms: _531  and  _533
REMARK  214  A    between atoms: _533  and  _534
REMARK  215  A    between atoms: _533  and  _536
REMARK  216  A    between atoms: _536  and  _537
REMARK  217  A    between atoms: _540  and  _542
REMARK  218  A    between atoms: _542  and  _543
REMARK  219  A    between atoms: _542  and  _545
REMARK  220  A    between atoms: _545  and  _546
REMARK  221  A    between atoms: _549  and  _551
REMARK  222  A    between atoms: _551  and  _552
REMARK  223  A    between atoms: _554  and  _556
REMARK  224  A    between atoms: _556  and  _557
REMARK  225  A    between atoms: _556  and  _559
REMARK  226  A    between atoms: _559  and  _560
REMARK  227  A    between atoms: _560  and  _561
REMARK  228  A    between atoms: _561  and  _562
REMARK                            x       y       z     vdW  Elec       q    Type
REMARK                         _______ _______ _______ _____ _____    ______ ____
ROOT
ATOM      1  O   HOH     1       7.404  -0.755   3.947  0.00  0.00    +0.000 OA
ENDROOT
TORSDOF 0
REMARK  Name = ../refined-set-2016/1dif/1dif_pocket.pdb
REMARK  228 active torsions:
REMARK  status: ('A' for Active; 'I' for Inactive)
REMARK    1  A    between atoms: _1  and  _3
REMARK    2  A    between atoms: _3  and  _4
REMARK    3  A    between atoms: _3  and  _6
REMARK    4  A    between atoms: _6  and  _7
REMARK    5  A    between atoms: _7  and  _8
REMARK    6  A    between atoms: _8  and  _9
REMARK    7  A    between atoms: _19  and  _20
REMARK    8  A    between atoms: _25  and  _27
REMARK    9  A    between atoms: _27  and  _28
REMARK   10  A    between atoms: _27  and  _30
REMARK   11  A    between atoms: _30  and  _31
REMARK   12  A    between atoms: _34  and  _36
REMARK   13  A    between atoms: _36  and  _37
REMARK   14  A    between atoms: _36  and  _39
REMARK   15  A    between atoms: _39  and  _40
REMARK   16  A    between atoms: _43  and  _45
REMARK   17  A    between atoms: _45  and  _46
REMARK   18  A    between atoms: _45  and  _48
REMARK   19  A    between atoms: _48  and  _49
REMARK   20  A    between atoms: _52  and  _54
REMARK   21  A    between atoms: _54  and  _55
REMARK   22  A    between atoms: _54  and  _57
REMARK   23  A    between atoms: _57  and  _58
REMARK   24  A    between atoms: _61  and  _63
REMARK   25  A    between atoms: _63  and  _64
REMARK   26  A    between atoms: _63  and  _66
REMARK   27  A    between atoms: _66  and  _67
REMARK   28  A    between atoms: _70  and  _72
REMARK   29  A    between atoms: _72  and  _73
REMARK   30  A    between atoms: _75  and  _77
REMARK   31  A    between atoms: _77  and  _78
REMARK   32  A    between atoms: _81  and  _83
REMARK   33  A    between atoms: _83  and  _84
REMARK   34  A    between atoms: _83  and  _86
REMARK   35  A    between atoms: _86  and  _87
REMARK   36  A    between atoms: _90  and  _92
REMARK   37  A    between atoms: _92  and  _93
REMARK   38  A    between atoms: _92  and  _95
REMARK   39  A    between atoms: _95  and  _96
REMARK   40  A    between atoms: _99  and  _101
REMARK   41  A    between atoms: _101  and  _102
REMARK   42  A    between atoms: _101  and  _104
REMARK   43  A    between atoms: _104  and  _105
REMARK   44  A    between atoms: _108  and  _110
REMARK   45  A    between atoms: _110  and  _111
REMARK   46  A    between atoms: _110  and  _113
REMARK   47  A    between atoms: _116  and  _118
REMARK   48  A    between atoms: _118  and  _119
REMARK   49  A    between atoms: _118  and  _121
REMARK   50  A    between atoms: _121  and  _122
REMARK   51  A    between atoms: _122  and  _123
REMARK   52  A    between atoms: _123  and  _124
REMARK   53  A    between atoms: _124  and  _125
REMARK   54  A    between atoms: _129  and  _131
REMARK   55  A    between atoms: _131  and  _132
REMARK   56  A    between atoms: _131  and  _134
REMARK   57  A    between atoms: _134  and  _135
REMARK   58  A    between atoms: _135  and  _136
REMARK   59  A    between atoms: _138  and  _140
REMARK   60  A    between atoms: _140  and  _141
REMARK   61  A    between atoms: _140  and  _143
REMARK   62  A    between atoms: _143  and  _144
REMARK   63  A    between atoms: _147  and  _149
REMARK   64  A    between atoms: _149  and  _150
REMARK   65  A    between atoms: _152  and  _154
REMARK   66  A    between atoms: _154  and  _155
REMARK   67  A    between atoms: _157  and  _159
REMARK   68  A    between atoms: _159  and  _160
REMARK   69  A    between atoms: _159  and  _162
REMARK   70  A    between atoms: _162  and  _163
REMARK   71  A    between atoms: _166  and  _168
REMARK   72  A    between atoms: _168  and  _169
REMARK   73  A    between atoms: _171  and  _173
REMARK   74  A    between atoms: _173  and  _174
REMARK   75  A    between atoms: _176  and  _178
REMARK   76  A    between atoms: _178  and  _179
REMARK   77  A    between atoms: _178  and  _181
REMARK   78  A    between atoms: _181  and  _182
REMARK   79  A    between atoms: _188  and  _190
REMARK   80  A    between atoms: _190  and  _191
REMARK   81  A    between atoms: _190  and  _193
REMARK   82  A    between atoms: _193  and  _194
REMARK   83  A    between atoms: _197  and  _199
REMARK   84  A    between atoms: _199  and  _200
REMARK   85  A    between atoms: _199  and  _202
REMARK   86  A    between atoms: _205  and  _207
REMARK   87  A    between atoms: _207  and  _208
REMARK   88  A    between atoms: _207  and  _210
REMARK   89  A    between atoms: _210  and  _211
REMARK   90  A    between atoms: _215  and  _216
REMARK   91  A    between atoms: _221  and  _223
REMARK   92  A    between atoms: _223  and  _224
REMARK   93  A    between atoms: _223  and  _226
REMARK   94  A    between atoms: _226  and  _227
REMARK   95  A    between atoms: _231  and  _232
REMARK   96  A    between atoms: _237  and  _239
REMARK   97  A    between atoms: _239  and  _240
REMARK   98  A    between atoms: _239  and  _242
REMARK   99  A    between atoms: _245  and  _247
REMARK  100  A    between atoms: _247  and  _248
REMARK  101  A    between atoms: _247  and  _250
REMARK  102  A    between atoms: _250  and  _251
REMARK  103  A    between atoms: _256  and  _258
REMARK  104  A    between atoms: _258  and  _259
REMARK  105  A    between atoms: _258  and  _261
REMARK  106  A    between atoms: _261  and  _262
REMARK  107  A    between atoms: _265  and  _267
REMARK  108  A    between atoms: _267  and  _268
REMARK  109  A    between atoms: _267  and  _270
REMARK  110  A    between atoms: _270  and  _271
REMARK  111  A    between atoms: _274  and  _276
REMARK  112  A    between atoms: _276  and  _277
REMARK  113  A    between atoms: _279  and  _281
REMARK  114  A    between atoms: _281  and  _282
REMARK  115  A    between atoms: _281  and  _284
REMARK  116  A    between atoms: _284  and  _285
REMARK  117  A    between atoms: _285  and  _286
REMARK  118  A    between atoms: _286  and  _287
REMARK  119  A    between atoms: _296  and  _298
REMARK  120  A    between atoms: _298  and  _299
REMARK  121  A    between atoms: _298  and  _301
REMARK  122  A    between atoms: _301  and  _302
REMARK  123  A    between atoms: _302  and  _303
REMARK  124  A    between atoms: _303  and  _304
REMARK  125  A    between atoms: _314  and  _315
REMARK  126  A    between atoms: _320  and  _322
REMARK  127  A    between atoms: _322  and  _323
REMARK  128  A    between atoms: _322  and  _325
REMARK  129  A    between atoms: _325  and  _326
REMARK  130  A    between atoms: _329  and  _331
REMARK  131  A    between atoms: _331  and  _332
REMARK  132  A    between atoms: _331  and  _334
REMARK  133  A    between atoms: _334  and  _335
REMARK  134  A    between atoms: _338  and  _340
REMARK  135  A    between atoms: _340  and  _341
REMARK  136  A    between atoms: _340  and  _343
REMARK  137  A    between atoms: _343  and  _344
REMARK  138  A    between atoms: _347  and  _349
REMARK  139  A    between atoms: _349  and  _350
REMARK  140  A    between atoms: _349  and  _352
REMARK  141  A    between atoms: _352  and  _353
REMARK  142  A    between atoms: _356  and  _358
REMARK  143  A    between atoms: _358  and  _359
REMARK  144  A    between atoms: _358  and  _361
REMARK  145  A    between atoms: _361  and  _362
REMARK  146  A    between atoms: _365  and  _367
REMARK  147  A    between atoms: _367  and  _368
REMARK  148  A    between atoms: _370  and  _372
REMARK  149  A    between atoms: _372  and  _373
REMARK  150  A    between atoms: _376  and  _378
REMARK  151  A    between atoms: _378  and  _379
REMARK  152  A    between atoms: _378  and  _381
REMARK  153  A    between atoms: _381  and  _382
REMARK  154  A    between atoms: _385  and  _387
REMARK  155  A    between atoms: _387  and  _388
REMARK  156  A    between atoms: _387  and  _390
REMARK  157  A    between atoms: _390  and  _391
REMARK  158  A    between atoms: _394  and  _396
REMARK  159  A    between atoms: _396  and  _397
REMARK  160  A    between atoms: _396  and  _399
REMARK  161  A    between atoms: _399  and  _400
REMARK  162  A    between atoms: _403  and  _405
REMARK  163  A    between atoms: _405  and  _406
REMARK  164  A    between atoms: _405  and  _408
REMARK  165  A    between atoms: _411  and  _413
REMARK  166  A    between atoms: _413  and  _414
REMARK  167  A    between atoms: _413  and  _416
REMARK  168  A    between atoms: _416  and  _417
REMARK  169  A    between atoms: _417  and  _418
REMARK  170  A    between atoms: _420  and  _422
REMARK  171  A    between atoms: _422  and  _423
REMARK  172  A    between atoms: _422  and  _425
REMARK  173  A    between atoms: _425  and  _426
REMARK  174  A    between atoms: _429  and  _431
REMARK  175  A    between atoms: _431  and  _432
REMARK  176  A    between atoms: _434  and  _436
REMARK  177  A    between atoms: _436  and  _437
REMARK  178  A    between atoms: _439  and  _441
REMARK  179  A    between atoms: _441  and  _442
REMARK  180  A    between atoms: _441  and  _444
REMARK  181  A    between atoms: _444  and  _445
REMARK  182  A    between atoms: _448  and  _450
REMARK  183  A    between atoms: _450  and  _451
REMARK  184  A    between atoms: _453  and  _455
REMARK  185  A    between atoms: _455  and  _456
REMARK  186  A    between atoms: _458  and  _460
REMARK  187  A    between atoms: _460  and  _461
REMARK  188  A    between atoms: _460  and  _463
REMARK  189  A    between atoms: _463  and  _464
REMARK  190  A    between atoms: _470  and  _472
REMARK  191  A    between atoms: _472  and  _473
REMARK  192  A    between atoms: _472  and  _475
REMARK  193  A    between atoms: _475  and  _476
REMARK  194  A    between atoms: _479  and  _481
REMARK  195  A    between atoms: _481  and  _482
REMARK  196  A    between atoms: _481  and  _484
REMARK  197  A    between atoms: _487  and  _489
REMARK  198  A    between atoms: _489  and  _490
REMARK  199  A    between atoms: _489  and  _492
REMARK  200  A    between atoms: _492  and  _493
REMARK  201  A    between atoms: _496  and  _498
REMARK  202  A    between atoms: _498  and  _499
REMARK  203  A    between atoms: _498  and  _501
REMARK  204  A    between atoms: _501  and  _502
REMARK  205  A    between atoms: _506  and  _507
REMARK  206  A    between atoms: _512  and  _514
REMARK  207  A    between atoms: _514  and  _515
REMARK  208  A    between atoms: _514  and  _517
REMARK  209  A    between atoms: _520  and  _522
REMARK  210  A    between atoms: _522  and  _523
REMARK  211  A    between atoms: _522  and  _525
REMARK  212  A    between atoms: _525  and  _526
REMARK  213  A    between atoms: _531  and  _533
REMARK  214  A    between atoms: _533  and  _534
REMARK  215  A    between atoms: _533  and  _536
REMARK  216  A    between atoms: _536  and  _537
REMARK  217  A    between atoms: _540  and  _542
REMARK  218  A    between atoms: _542  and  _543
REMARK  219  A    between atoms: _542  and  _545
REMARK  220  A    between atoms: _545  and  _546
REMARK  221  A    between atoms: _549  and  _551
REMARK  222  A    between atoms: _551  and  _552
REMARK  223  A    between atoms: _554  and  _556
REMARK  224  A    between atoms: _556  and  _557
REMARK  225  A    between atoms: _556  and  _559
REMARK  226  A    between atoms: _559  and  _560
REMARK  227  A    between atoms: _560  and  _561
REMARK  228  A    between atoms: _561  and  _562
REMARK                            x       y       z     vdW  Elec       q    Type
REMARK                         _______ _______ _______ _____ _____    ______ ____
ROOT
ATOM      1  O   HOH     1       0.027 -11.354  19.496  0.00  0.00    +0.000 OA
ENDROOT
TORSDOF 0
REMARK  Name = ../refined-set-2016/1dif/1dif_pocket.pdb
REMARK  228 active torsions:
REMARK  status: ('A' for Active; 'I' for Inactive)
REMARK    1  A    between atoms: _1  and  _3
REMARK    2  A    between atoms: _3  and  _4
REMARK    3  A    between atoms: _3  and  _6
REMARK    4  A    between atoms: _6  and  _7
REMARK    5  A    between atoms: _7  and  _8
REMARK    6  A    between atoms: _8  and  _9
REMARK    7  A    between atoms: _19  and  _20
REMARK    8  A    between atoms: _25  and  _27
REMARK    9  A    between atoms: _27  and  _28
REMARK   10  A    between atoms: _27  and  _30
REMARK   11  A    between atoms: _30  and  _31
REMARK   12  A    between atoms: _34  and  _36
REMARK   13  A    between atoms: _36  and  _37
REMARK   14  A    between atoms: _36  and  _39
REMARK   15  A    between atoms: _39  and  _40
REMARK   16  A    between atoms: _43  and  _45
REMARK   17  A    between atoms: _45  and  _46
REMARK   18  A    between atoms: _45  and  _48
REMARK   19  A    between atoms: _48  and  _49
REMARK   20  A    between atoms: _52  and  _54
REMARK   21  A    between atoms: _54  and  _55
REMARK   22  A    between atoms: _54  and  _57
REMARK   23  A    between atoms: _57  and  _58
REMARK   24  A    between atoms: _61  and  _63
REMARK   25  A    between atoms: _63  and  _64
REMARK   26  A    between atoms: _63  and  _66
REMARK   27  A    between atoms: _66  and  _67
REMARK   28  A    between atoms: _70  and  _72
REMARK   29  A    between atoms: _72  and  _73
REMARK   30  A    between atoms: _75  and  _77
REMARK   31  A    between atoms: _77  and  _78
REMARK   32  A    between atoms: _81  and  _83
REMARK   33  A    between atoms: _83  and  _84
REMARK   34  A    between atoms: _83  and  _86
REMARK   35  A    between atoms: _86  and  _87
REMARK   36  A    between atoms: _90  and  _92
REMARK   37  A    between atoms: _92  and  _93
REMARK   38  A    between atoms: _92  and  _95
REMARK   39  A    between atoms: _95  and  _96
REMARK   40  A    between atoms: _99  and  _101
REMARK   41  A    between atoms: _101  and  _102
REMARK   42  A    between atoms: _101  and  _104
REMARK   43  A    between atoms: _104  and  _105
REMARK   44  A    between atoms: _108  and  _110
REMARK   45  A    between atoms: _110  and  _111
REMARK   46  A    between atoms: _110  and  _113
REMARK   47  A    between atoms: _116  and  _118
REMARK   48  A    between atoms: _118  and  _119
REMARK   49  A    between atoms: _118  and  _121
REMARK   50  A    between atoms: _121  and  _122
REMARK   51  A    between atoms: _122  and  _123
REMARK   52  A    between atoms: _123  and  _124
REMARK   53  A    between atoms: _124  and  _125
REMARK   54  A    between atoms: _129  and  _131
REMARK   55  A    between atoms: _131  and  _132
REMARK   56  A    between atoms: _131  and  _134
REMARK   57  A    between atoms: _134  and  _135
REMARK   58  A    between atoms: _135  and  _136
REMARK   59  A    between atoms: _138  and  _140
REMARK   60  A    between atoms: _140  and  _141
REMARK   61  A    between atoms: _140  and  _143
REMARK   62  A    between atoms: _143  and  _144
REMARK   63  A    between atoms: _147  and  _149
REMARK   64  A    between atoms: _149  and  _150
REMARK   65  A    between atoms: _152  and  _154
REMARK   66  A    between atoms: _154  and  _155
REMARK   67  A    between atoms: _157  and  _159
REMARK   68  A    between atoms: _159  and  _160
REMARK   69  A    between atoms: _159  and  _162
REMARK   70  A    between atoms: _162  and  _163
REMARK   71  A    between atoms: _166  and  _168
REMARK   72  A    between atoms: _168  and  _169
REMARK   73  A    between atoms: _171  and  _173
REMARK   74  A    between atoms: _173  and  _174
REMARK   75  A    between atoms: _176  and  _178
REMARK   76  A    between atoms: _178  and  _179
REMARK   77  A    between atoms: _178  and  _181
REMARK   78  A    between atoms: _181  and  _182
REMARK   79  A    between atoms: _188  and  _190
REMARK   80  A    between atoms: _190  and  _191
REMARK   81  A    between atoms: _190  and  _193
REMARK   82  A    between atoms: _193  and  _194
REMARK   83  A    between atoms: _197  and  _199
REMARK   84  A    between atoms: _199  and  _200
REMARK   85  A    between atoms: _199  and  _202
REMARK   86  A    between atoms: _205  and  _207
REMARK   87  A    between atoms: _207  and  _208
REMARK   88  A    between atoms: _207  and  _210
REMARK   89  A    between atoms: _210  and  _211
REMARK   90  A    between atoms: _215  and  _216
REMARK   91  A    between atoms: _221  and  _223
REMARK   92  A    between atoms: _223  and  _224
REMARK   93  A    between atoms: _223  and  _226
REMARK   94  A    between atoms: _226  and  _227
REMARK   95  A    between atoms: _231  and  _232
REMARK   96  A    between atoms: _237  and  _239
REMARK   97  A    between atoms: _239  and  _240
REMARK   98  A    between atoms: _239  and  _242
REMARK   99  A    between atoms: _245  and  _247
REMARK  100  A    between atoms: _247  and  _248
REMARK  101  A    between atoms: _247  and  _250
REMARK  102  A    between atoms: _250  and  _251
REMARK  103  A    between atoms: _256  and  _258
REMARK  104  A    between atoms: _258  and  _259
REMARK  105  A    between atoms: _258  and  _261
REMARK  106  A    between atoms: _261  and  _262
REMARK  107  A    between atoms: _265  and  _267
REMARK  108  A    between atoms: _267  and  _268
REMARK  109  A    between atoms: _267  and  _270
REMARK  110  A    between atoms: _270  and  _271
REMARK  111  A    between atoms: _274  and  _276
REMARK  112  A    between atoms: _276  and  _277
REMARK  113  A    between atoms: _279  and  _281
REMARK  114  A    between atoms: _281  and  _282
REMARK  115  A    between atoms: _281  and  _284
REMARK  116  A    between atoms: _284  and  _285
REMARK  117  A    between atoms: _285  and  _286
REMARK  118  A    between atoms: _286  and  _287
REMARK  119  A    between atoms: _296  and  _298
REMARK  120  A    between atoms: _298  and  _299
REMARK  121  A    between atoms: _298  and  _301
REMARK  122  A    between atoms: _301  and  _302
REMARK  123  A    between atoms: _302  and  _303
REMARK  124  A    between atoms: _303  and  _304
REMARK  125  A    between atoms: _314  and  _315
REMARK  126  A    between atoms: _320  and  _322
REMARK  127  A    between atoms: _322  and  _323
REMARK  128  A    between atoms: _322  and  _325
REMARK  129  A    between atoms: _325  and  _326
REMARK  130  A    between atoms: _329  and  _331
REMARK  131  A    between atoms: _331  and  _332
REMARK  132  A    between atoms: _331  and  _334
REMARK  133  A    between atoms: _334  and  _335
REMARK  134  A    between atoms: _338  and  _340
REMARK  135  A    between atoms: _340  and  _341
REMARK  136  A    between atoms: _340  and  _343
REMARK  137  A    between atoms: _343  and  _344
REMARK  138  A    between atoms: _347  and  _349
REMARK  139  A    between atoms: _349  and  _350
REMARK  140  A    between atoms: _349  and  _352
REMARK  141  A    between atoms: _352  and  _353
REMARK  142  A    between atoms: _356  and  _358
REMARK  143  A    between atoms: _358  and  _359
REMARK  144  A    between atoms: _358  and  _361
REMARK  145  A    between atoms: _361  and  _362
REMARK  146  A    between atoms: _365  and  _367
REMARK  147  A    between atoms: _367  and  _368
REMARK  148  A    between atoms: _370  and  _372
REMARK  149  A    between atoms: _372  and  _373
REMARK  150  A    between atoms: _376  and  _378
REMARK  151  A    between atoms: _378  and  _379
REMARK  152  A    between atoms: _378  and  _381
REMARK  153  A    between atoms: _381  and  _382
REMARK  154  A    between atoms: _385  and  _387
REMARK  155  A    between atoms: _387  and  _388
REMARK  156  A    between atoms: _387  and  _390
REMARK  157  A    between atoms: _390  and  _391
REMARK  158  A    between atoms: _394  and  _396
REMARK  159  A    between atoms: _396  and  _397
REMARK  160  A    between atoms: _396  and  _399
REMARK  161  A    between atoms: _399  and  _400
REMARK  162  A    between atoms: _403  and  _405
REMARK  163  A    between atoms: _405  and  _406
REMARK  164  A    between atoms: _405  and  _408
REMARK  165  A    between atoms: _411  and  _413
REMARK  166  A    between atoms: _413  and  _414
REMARK  167  A    between atoms: _413  and  _416
REMARK  168  A    between atoms: _416  and  _417
REMARK  169  A    between atoms: _417  and  _418
REMARK  170  A    between atoms: _420  and  _422
REMARK  171  A    between atoms: _422  and  _423
REMARK  172  A    between atoms: _422  and  _425
REMARK  173  A    between atoms: _425  and  _426
REMARK  174  A    between atoms: _429  and  _431
REMARK  175  A    between atoms: _431  and  _432
REMARK  176  A    between atoms: _434  and  _436
REMARK  177  A    between atoms: _436  and  _437
REMARK  178  A    between atoms: _439  and  _441
REMARK  179  A    between atoms: _441  and  _442
REMARK  180  A    between atoms: _441  and  _444
REMARK  181  A    between atoms: _444  and  _445
REMARK  182  A    between atoms: _448  and  _450
REMARK  183  A    between atoms: _450  and  _451
REMARK  184  A    between atoms: _453  and  _455
REMARK  185  A    between atoms: _455  and  _456
REMARK  186  A    between atoms: _458  and  _460
REMARK  187  A    between atoms: _460  and  _461
REMARK  188  A    between atoms: _460  and  _463
REMARK  189  A    between atoms: _463  and  _464
REMARK  190  A    between atoms: _470  and  _472
REMARK  191  A    between atoms: _472  and  _473
REMARK  192  A    between atoms: _472  and  _475
REMARK  193  A    between atoms: _475  and  _476
REMARK  194  A    between atoms: _479  and  _481
REMARK  195  A    between atoms: _481  and  _482
REMARK  196  A    between atoms: _481  and  _484
REMARK  197  A    between atoms: _487  and  _489
REMARK  198  A    between atoms: _489  and  _490
REMARK  199  A    between atoms: _489  and  _492
REMARK  200  A    between atoms: _492  and  _493
REMARK  201  A    between atoms: _496  and  _498
REMARK  202  A    between atoms: _498  and  _499
REMARK  203  A    between atoms: _498  and  _501
REMARK  204  A    between atoms: _501  and  _502
REMARK  205  A    between atoms: _506  and  _507
REMARK  206  A    between atoms: _512  and  _514
REMARK  207  A    between atoms: _514  and  _515
REMARK  208  A    between atoms: _514  and  _517
REMARK  209  A    between atoms: _520  and  _522
REMARK  210  A    between atoms: _522  and  _523
REMARK  211  A    between atoms: _522  and  _525
REMARK  212  A    between atoms: _525  and  _526
REMARK  213  A    between atoms: _531  and  _533
REMARK  214  A    between atoms: _533  and  _534
REMARK  215  A    between atoms: _533  and  _536
REMARK  216  A    between atoms: _536  and  _537
REMARK  217  A    between atoms: _540  and  _542
REMARK  218  A    between atoms: _542  and  _543
REMARK  219  A    between atoms: _542  and  _545
REMARK  220  A    between atoms: _545  and  _546
REMARK  221  A    between atoms: _549  and  _551
REMARK  222  A    between atoms: _551  and  _552
REMARK  223  A    between atoms: _554  and  _556
REMARK  224  A    between atoms: _556  and  _557
REMARK  225  A    between atoms: _556  and  _559
REMARK  226  A    between atoms: _559  and  _560
REMARK  227  A    between atoms: _560  and  _561
REMARK  228  A    between atoms: _561  and  _562
REMARK                            x       y       z     vdW  Elec       q    Type
REMARK                         _______ _______ _______ _____ _____    ______ ____
ROOT
ATOM      1  O   HOH     1      -0.616  -9.207  22.024  0.00  0.00    +0.000 OA
ENDROOT
TORSDOF 0
REMARK  Name = ../refined-set-2016/1dif/1dif_pocket.pdb
REMARK  228 active torsions:
REMARK  status: ('A' for Active; 'I' for Inactive)
REMARK    1  A    between atoms: _1  and  _3
REMARK    2  A    between atoms: _3  and  _4
REMARK    3  A    between atoms: _3  and  _6
REMARK    4  A    between atoms: _6  and  _7
REMARK    5  A    between atoms: _7  and  _8
REMARK    6  A    between atoms: _8  and  _9
REMARK    7  A    between atoms: _19  and  _20
REMARK    8  A    between atoms: _25  and  _27
REMARK    9  A    between atoms: _27  and  _28
REMARK   10  A    between atoms: _27  and  _30
REMARK   11  A    between atoms: _30  and  _31
REMARK   12  A    between atoms: _34  and  _36
REMARK   13  A    between atoms: _36  and  _37
REMARK   14  A    between atoms: _36  and  _39
REMARK   15  A    between atoms: _39  and  _40
REMARK   16  A    between atoms: _43  and  _45
REMARK   17  A    between atoms: _45  and  _46
REMARK   18  A    between atoms: _45  and  _48
REMARK   19  A    between atoms: _48  and  _49
REMARK   20  A    between atoms: _52  and  _54
REMARK   21  A    between atoms: _54  and  _55
REMARK   22  A    between atoms: _54  and  _57
REMARK   23  A    between atoms: _57  and  _58
REMARK   24  A    between atoms: _61  and  _63
REMARK   25  A    between atoms: _63  and  _64
REMARK   26  A    between atoms: _63  and  _66
REMARK   27  A    between atoms: _66  and  _67
REMARK   28  A    between atoms: _70  and  _72
REMARK   29  A    between atoms: _72  and  _73
REMARK   30  A    between atoms: _75  and  _77
REMARK   31  A    between atoms: _77  and  _78
REMARK   32  A    between atoms: _81  and  _83
REMARK   33  A    between atoms: _83  and  _84
REMARK   34  A    between atoms: _83  and  _86
REMARK   35  A    between atoms: _86  and  _87
REMARK   36  A    between atoms: _90  and  _92
REMARK   37  A    between atoms: _92  and  _93
REMARK   38  A    between atoms: _92  and  _95
REMARK   39  A    between atoms: _95  and  _96
REMARK   40  A    between atoms: _99  and  _101
REMARK   41  A    between atoms: _101  and  _102
REMARK   42  A    between atoms: _101  and  _104
REMARK   43  A    between atoms: _104  and  _105
REMARK   44  A    between atoms: _108  and  _110
REMARK   45  A    between atoms: _110  and  _111
REMARK   46  A    between atoms: _110  and  _113
REMARK   47  A    between atoms: _116  and  _118
REMARK   48  A    between atoms: _118  and  _119
REMARK   49  A    between atoms: _118  and  _121
REMARK   50  A    between atoms: _121  and  _122
REMARK   51  A    between atoms: _122  and  _123
REMARK   52  A    between atoms: _123  and  _124
REMARK   53  A    between atoms: _124  and  _125
REMARK   54  A    between atoms: _129  and  _131
REMARK   55  A    between atoms: _131  and  _132
REMARK   56  A    between atoms: _131  and  _134
REMARK   57  A    between atoms: _134  and  _135
REMARK   58  A    between atoms: _135  and  _136
REMARK   59  A    between atoms: _138  and  _140
REMARK   60  A    between atoms: _140  and  _141
REMARK   61  A    between atoms: _140  and  _143
REMARK   62  A    between atoms: _143  and  _144
REMARK   63  A    between atoms: _147  and  _149
REMARK   64  A    between atoms: _149  and  _150
REMARK   65  A    between atoms: _152  and  _154
REMARK   66  A    between atoms: _154  and  _155
REMARK   67  A    between atoms: _157  and  _159
REMARK   68  A    between atoms: _159  and  _160
REMARK   69  A    between atoms: _159  and  _162
REMARK   70  A    between atoms: _162  and  _163
REMARK   71  A    between atoms: _166  and  _168
REMARK   72  A    between atoms: _168  and  _169
REMARK   73  A    between atoms: _171  and  _173
REMARK   74  A    between atoms: _173  and  _174
REMARK   75  A    between atoms: _176  and  _178
REMARK   76  A    between atoms: _178  and  _179
REMARK   77  A    between atoms: _178  and  _181
REMARK   78  A    between atoms: _181  and  _182
REMARK   79  A    between atoms: _188  and  _190
REMARK   80  A    between atoms: _190  and  _191
REMARK   81  A    between atoms: _190  and  _193
REMARK   82  A    between atoms: _193  and  _194
REMARK   83  A    between atoms: _197  and  _199
REMARK   84  A    between atoms: _199  and  _200
REMARK   85  A    between atoms: _199  and  _202
REMARK   86  A    between atoms: _205  and  _207
REMARK   87  A    between atoms: _207  and  _208
REMARK   88  A    between atoms: _207  and  _210
REMARK   89  A    between atoms: _210  and  _211
REMARK   90  A    between atoms: _215  and  _216
REMARK   91  A    between atoms: _221  and  _223
REMARK   92  A    between atoms: _223  and  _224
REMARK   93  A    between atoms: _223  and  _226
REMARK   94  A    between atoms: _226  and  _227
REMARK   95  A    between atoms: _231  and  _232
REMARK   96  A    between atoms: _237  and  _239
REMARK   97  A    between atoms: _239  and  _240
REMARK   98  A    between atoms: _239  and  _242
REMARK   99  A    between atoms: _245  and  _247
REMARK  100  A    between atoms: _247  and  _248
REMARK  101  A    between atoms: _247  and  _250
REMARK  102  A    between atoms: _250  and  _251
REMARK  103  A    between atoms: _256  and  _258
REMARK  104  A    between atoms: _258  and  _259
REMARK  105  A    between atoms: _258  and  _261
REMARK  106  A    between atoms: _261  and  _262
REMARK  107  A    between atoms: _265  and  _267
REMARK  108  A    between atoms: _267  and  _268
REMARK  109  A    between atoms: _267  and  _270
REMARK  110  A    between atoms: _270  and  _271
REMARK  111  A    between atoms: _274  and  _276
REMARK  112  A    between atoms: _276  and  _277
REMARK  113  A    between atoms: _279  and  _281
REMARK  114  A    between atoms: _281  and  _282
REMARK  115  A    between atoms: _281  and  _284
REMARK  116  A    between atoms: _284  and  _285
REMARK  117  A    between atoms: _285  and  _286
REMARK  118  A    between atoms: _286  and  _287
REMARK  119  A    between atoms: _296  and  _298
REMARK  120  A    between atoms: _298  and  _299
REMARK  121  A    between atoms: _298  and  _301
REMARK  122  A    between atoms: _301  and  _302
REMARK  123  A    between atoms: _302  and  _303
REMARK  124  A    between atoms: _303  and  _304
REMARK  125  A    between atoms: _314  and  _315
REMARK  126  A    between atoms: _320  and  _322
REMARK  127  A    between atoms: _322  and  _323
REMARK  128  A    between atoms: _322  and  _325
REMARK  129  A    between atoms: _325  and  _326
REMARK  130  A    between atoms: _329  and  _331
REMARK  131  A    between atoms: _331  and  _332
REMARK  132  A    between atoms: _331  and  _334
REMARK  133  A    between atoms: _334  and  _335
REMARK  134  A    between atoms: _338  and  _340
REMARK  135  A    between atoms: _340  and  _341
REMARK  136  A    between atoms: _340  and  _343
REMARK  137  A    between atoms: _343  and  _344
REMARK  138  A    between atoms: _347  and  _349
REMARK  139  A    between atoms: _349  and  _350
REMARK  140  A    between atoms: _349  and  _352
REMARK  141  A    between atoms: _352  and  _353
REMARK  142  A    between atoms: _356  and  _358
REMARK  143  A    between atoms: _358  and  _359
REMARK  144  A    between atoms: _358  and  _361
REMARK  145  A    between atoms: _361  and  _362
REMARK  146  A    between atoms: _365  and  _367
REMARK  147  A    between atoms: _367  and  _368
REMARK  148  A    between atoms: _370  and  _372
REMARK  149  A    between atoms: _372  and  _373
REMARK  150  A    between atoms: _376  and  _378
REMARK  151  A    between atoms: _378  and  _379
REMARK  152  A    between atoms: _378  and  _381
REMARK  153  A    between atoms: _381  and  _382
REMARK  154  A    between atoms: _385  and  _387
REMARK  155  A    between atoms: _387  and  _388
REMARK  156  A    between atoms: _387  and  _390
REMARK  157  A    between atoms: _390  and  _391
REMARK  158  A    between atoms: _394  and  _396
REMARK  159  A    between atoms: _396  and  _397
REMARK  160  A    between atoms: _396  and  _399
REMARK  161  A    between atoms: _399  and  _400
REMARK  162  A    between atoms: _403  and  _405
REMARK  163  A    between atoms: _405  and  _406
REMARK  164  A    between atoms: _405  and  _408
REMARK  165  A    between atoms: _411  and  _413
REMARK  166  A    between atoms: _413  and  _414
REMARK  167  A    between atoms: _413  and  _416
REMARK  168  A    between atoms: _416  and  _417
REMARK  169  A    between atoms: _417  and  _418
REMARK  170  A    between atoms: _420  and  _422
REMARK  171  A    between atoms: _422  and  _423
REMARK  172  A    between atoms: _422  and  _425
REMARK  173  A    between atoms: _425  and  _426
REMARK  174  A    between atoms: _429  and  _431
REMARK  175  A    between atoms: _431  and  _432
REMARK  176  A    between atoms: _434  and  _436
REMARK  177  A    between atoms: _436  and  _437
REMARK  178  A    between atoms: _439  and  _441
REMARK  179  A    between atoms: _441  and  _442
REMARK  180  A    between atoms: _441  and  _444
REMARK  181  A    between atoms: _444  and  _445
REMARK  182  A    between atoms: _448  and  _450
REMARK  183  A    between atoms: _450  and  _451
REMARK  184  A    between atoms: _453  and  _455
REMARK  185  A    between atoms: _455  and  _456
REMARK  186  A    between atoms: _458  and  _460
REMARK  187  A    between atoms: _460  and  _461
REMARK  188  A    between atoms: _460  and  _463
REMARK  189  A    between atoms: _463  and  _464
REMARK  190  A    between atoms: _470  and  _472
REMARK  191  A    between atoms: _472  and  _473
REMARK  192  A    between atoms: _472  and  _475
REMARK  193  A    between atoms: _475  and  _476
REMARK  194  A    between atoms: _479  and  _481
REMARK  195  A    between atoms: _481  and  _482
REMARK  196  A    between atoms: _481  and  _484
REMARK  197  A    between atoms: _487  and  _489
REMARK  198  A    between atoms: _489  and  _490
REMARK  199  A    between atoms: _489  and  _492
REMARK  200  A    between atoms: _492  and  _493
REMARK  201  A    between atoms: _496  and  _498
REMARK  202  A    between atoms: _498  and  _499
REMARK  203  A    between atoms: _498  and  _501
REMARK  204  A    between atoms: _501  and  _502
REMARK  205  A    between atoms: _506  and  _507
REMARK  206  A    between atoms: _512  and  _514
REMARK  207  A    between atoms: _514  and  _515
REMARK  208  A    between atoms: _514  and  _517
REMARK  209  A    between atoms: _520  and  _522
REMARK  210  A    between atoms: _522  and  _523
REMARK  211  A    between atoms: _522  and  _525
REMARK  212  A    between atoms: _525  and  _526
REMARK  213  A    between atoms: _531  and  _533
REMARK  214  A    between atoms: _533  and  _534
REMARK  215  A    between atoms: _533  and  _536
REMARK  216  A    between atoms: _536  and  _537
REMARK  217  A    between atoms: _540  and  _542
REMARK  218  A    between atoms: _542  and  _543
REMARK  219  A    between atoms: _542  and  _545
REMARK  220  A    between atoms: _545  and  _546
REMARK  221  A    between atoms: _549  and  _551
REMARK  222  A    between atoms: _551  and  _552
REMARK  223  A    between atoms: _554  and  _556
REMARK  224  A    between atoms: _556  and  _557
REMARK  225  A    between atoms: _556  and  _559
REMARK  226  A    between atoms: _559  and  _560
REMARK  227  A    between atoms: _560  and  _561
REMARK  228  A    between atoms: _561  and  _562
REMARK                            x       y       z     vdW  Elec       q    Type
REMARK                         _______ _______ _______ _____ _____    ______ ____
ROOT
ATOM      1  O   HOH     1       3.329  -8.462  28.373  0.00  0.00    +0.000 OA
ENDROOT
TORSDOF 0
REMARK  Name = ../refined-set-2016/1dif/1dif_pocket.pdb
REMARK  228 active torsions:
REMARK  status: ('A' for Active; 'I' for Inactive)
REMARK    1  A    between atoms: _1  and  _3
REMARK    2  A    between atoms: _3  and  _4
REMARK    3  A    between atoms: _3  and  _6
REMARK    4  A    between atoms: _6  and  _7
REMARK    5  A    between atoms: _7  and  _8
REMARK    6  A    between atoms: _8  and  _9
REMARK    7  A    between atoms: _19  and  _20
REMARK    8  A    between atoms: _25  and  _27
REMARK    9  A    between atoms: _27  and  _28
REMARK   10  A    between atoms: _27  and  _30
REMARK   11  A    between atoms: _30  and  _31
REMARK   12  A    between atoms: _34  and  _36
REMARK   13  A    between atoms: _36  and  _37
REMARK   14  A    between atoms: _36  and  _39
REMARK   15  A    between atoms: _39  and  _40
REMARK   16  A    between atoms: _43  and  _45
REMARK   17  A    between atoms: _45  and  _46
REMARK   18  A    between atoms: _45  and  _48
REMARK   19  A    between atoms: _48  and  _49
REMARK   20  A    between atoms: _52  and  _54
REMARK   21  A    between atoms: _54  and  _55
REMARK   22  A    between atoms: _54  and  _57
REMARK   23  A    between atoms: _57  and  _58
REMARK   24  A    between atoms: _61  and  _63
REMARK   25  A    between atoms: _63  and  _64
REMARK   26  A    between atoms: _63  and  _66
REMARK   27  A    between atoms: _66  and  _67
REMARK   28  A    between atoms: _70  and  _72
REMARK   29  A    between atoms: _72  and  _73
REMARK   30  A    between atoms: _75  and  _77
REMARK   31  A    between atoms: _77  and  _78
REMARK   32  A    between atoms: _81  and  _83
REMARK   33  A    between atoms: _83  and  _84
REMARK   34  A    between atoms: _83  and  _86
REMARK   35  A    between atoms: _86  and  _87
REMARK   36  A    between atoms: _90  and  _92
REMARK   37  A    between atoms: _92  and  _93
REMARK   38  A    between atoms: _92  and  _95
REMARK   39  A    between atoms: _95  and  _96
REMARK   40  A    between atoms: _99  and  _101
REMARK   41  A    between atoms: _101  and  _102
REMARK   42  A    between atoms: _101  and  _104
REMARK   43  A    between atoms: _104  and  _105
REMARK   44  A    between atoms: _108  and  _110
REMARK   45  A    between atoms: _110  and  _111
REMARK   46  A    between atoms: _110  and  _113
REMARK   47  A    between atoms: _116  and  _118
REMARK   48  A    between atoms: _118  and  _119
REMARK   49  A    between atoms: _118  and  _121
REMARK   50  A    between atoms: _121  and  _122
REMARK   51  A    between atoms: _122  and  _123
REMARK   52  A    between atoms: _123  and  _124
REMARK   53  A    between atoms: _124  and  _125
REMARK   54  A    between atoms: _129  and  _131
REMARK   55  A    between atoms: _131  and  _132
REMARK   56  A    between atoms: _131  and  _134
REMARK   57  A    between atoms: _134  and  _135
REMARK   58  A    between atoms: _135  and  _136
REMARK   59  A    between atoms: _138  and  _140
REMARK   60  A    between atoms: _140  and  _141
REMARK   61  A    between atoms: _140  and  _143
REMARK   62  A    between atoms: _143  and  _144
REMARK   63  A    between atoms: _147  and  _149
REMARK   64  A    between atoms: _149  and  _150
REMARK   65  A    between atoms: _152  and  _154
REMARK   66  A    between atoms: _154  and  _155
REMARK   67  A    between atoms: _157  and  _159
REMARK   68  A    between atoms: _159  and  _160
REMARK   69  A    between atoms: _159  and  _162
REMARK   70  A    between atoms: _162  and  _163
REMARK   71  A    between atoms: _166  and  _168
REMARK   72  A    between atoms: _168  and  _169
REMARK   73  A    between atoms: _171  and  _173
REMARK   74  A    between atoms: _173  and  _174
REMARK   75  A    between atoms: _176  and  _178
REMARK   76  A    between atoms: _178  and  _179
REMARK   77  A    between atoms: _178  and  _181
REMARK   78  A    between atoms: _181  and  _182
REMARK   79  A    between atoms: _188  and  _190
REMARK   80  A    between atoms: _190  and  _191
REMARK   81  A    between atoms: _190  and  _193
REMARK   82  A    between atoms: _193  and  _194
REMARK   83  A    between atoms: _197  and  _199
REMARK   84  A    between atoms: _199  and  _200
REMARK   85  A    between atoms: _199  and  _202
REMARK   86  A    between atoms: _205  and  _207
REMARK   87  A    between atoms: _207  and  _208
REMARK   88  A    between atoms: _207  and  _210
REMARK   89  A    between atoms: _210  and  _211
REMARK   90  A    between atoms: _215  and  _216
REMARK   91  A    between atoms: _221  and  _223
REMARK   92  A    between atoms: _223  and  _224
REMARK   93  A    between atoms: _223  and  _226
REMARK   94  A    between atoms: _226  and  _227
REMARK   95  A    between atoms: _231  and  _232
REMARK   96  A    between atoms: _237  and  _239
REMARK   97  A    between atoms: _239  and  _240
REMARK   98  A    between atoms: _239  and  _242
REMARK   99  A    between atoms: _245  and  _247
REMARK  100  A    between atoms: _247  and  _248
REMARK  101  A    between atoms: _247  and  _250
REMARK  102  A    between atoms: _250  and  _251
REMARK  103  A    between atoms: _256  and  _258
REMARK  104  A    between atoms: _258  and  _259
REMARK  105  A    between atoms: _258  and  _261
REMARK  106  A    between atoms: _261  and  _262
REMARK  107  A    between atoms: _265  and  _267
REMARK  108  A    between atoms: _267  and  _268
REMARK  109  A    between atoms: _267  and  _270
REMARK  110  A    between atoms: _270  and  _271
REMARK  111  A    between atoms: _274  and  _276
REMARK  112  A    between atoms: _276  and  _277
REMARK  113  A    between atoms: _279  and  _281
REMARK  114  A    between atoms: _281  and  _282
REMARK  115  A    between atoms: _281  and  _284
REMARK  116  A    between atoms: _284  and  _285
REMARK  117  A    between atoms: _285  and  _286
REMARK  118  A    between atoms: _286  and  _287
REMARK  119  A    between atoms: _296  and  _298
REMARK  120  A    between atoms: _298  and  _299
REMARK  121  A    between atoms: _298  and  _301
REMARK  122  A    between atoms: _301  and  _302
REMARK  123  A    between atoms: _302  and  _303
REMARK  124  A    between atoms: _303  and  _304
REMARK  125  A    between atoms: _314  and  _315
REMARK  126  A    between atoms: _320  and  _322
REMARK  127  A    between atoms: _322  and  _323
REMARK  128  A    between atoms: _322  and  _325
REMARK  129  A    between atoms: _325  and  _326
REMARK  130  A    between atoms: _329  and  _331
REMARK  131  A    between atoms: _331  and  _332
REMARK  132  A    between atoms: _331  and  _334
REMARK  133  A    between atoms: _334  and  _335
REMARK  134  A    between atoms: _338  and  _340
REMARK  135  A    between atoms: _340  and  _341
REMARK  136  A    between atoms: _340  and  _343
REMARK  137  A    between atoms: _343  and  _344
REMARK  138  A    between atoms: _347  and  _349
REMARK  139  A    between atoms: _349  and  _350
REMARK  140  A    between atoms: _349  and  _352
REMARK  141  A    between atoms: _352  and  _353
REMARK  142  A    between atoms: _356  and  _358
REMARK  143  A    between atoms: _358  and  _359
REMARK  144  A    between atoms: _358  and  _361
REMARK  145  A    between atoms: _361  and  _362
REMARK  146  A    between atoms: _365  and  _367
REMARK  147  A    between atoms: _367  and  _368
REMARK  148  A    between atoms: _370  and  _372
REMARK  149  A    between atoms: _372  and  _373
REMARK  150  A    between atoms: _376  and  _378
REMARK  151  A    between atoms: _378  and  _379
REMARK  152  A    between atoms: _378  and  _381
REMARK  153  A    between atoms: _381  and  _382
REMARK  154  A    between atoms: _385  and  _387
REMARK  155  A    between atoms: _387  and  _388
REMARK  156  A    between atoms: _387  and  _390
REMARK  157  A    between atoms: _390  and  _391
REMARK  158  A    between atoms: _394  and  _396
REMARK  159  A    between atoms: _396  and  _397
REMARK  160  A    between atoms: _396  and  _399
REMARK  161  A    between atoms: _399  and  _400
REMARK  162  A    between atoms: _403  and  _405
REMARK  163  A    between atoms: _405  and  _406
REMARK  164  A    between atoms: _405  and  _408
REMARK  165  A    between atoms: _411  and  _413
REMARK  166  A    between atoms: _413  and  _414
REMARK  167  A    between atoms: _413  and  _416
REMARK  168  A    between atoms: _416  and  _417
REMARK  169  A    between atoms: _417  and  _418
REMARK  170  A    between atoms: _420  and  _422
REMARK  171  A    between atoms: _422  and  _423
REMARK  172  A    between atoms: _422  and  _425
REMARK  173  A    between atoms: _425  and  _426
REMARK  174  A    between atoms: _429  and  _431
REMARK  175  A    between atoms: _431  and  _432
REMARK  176  A    between atoms: _434  and  _436
REMARK  177  A    between atoms: _436  and  _437
REMARK  178  A    between atoms: _439  and  _441
REMARK  179  A    between atoms: _441  and  _442
REMARK  180  A    between atoms: _441  and  _444
REMARK  181  A    between atoms: _444  and  _445
REMARK  182  A    between atoms: _448  and  _450
REMARK  183  A    between atoms: _450  and  _451
REMARK  184  A    between atoms: _453  and  _455
REMARK  185  A    between atoms: _455  and  _456
REMARK  186  A    between atoms: _458  and  _460
REMARK  187  A    between atoms: _460  and  _461
REMARK  188  A    between atoms: _460  and  _463
REMARK  189  A    between atoms: _463  and  _464
REMARK  190  A    between atoms: _470  and  _472
REMARK  191  A    between atoms: _472  and  _473
REMARK  192  A    between atoms: _472  and  _475
REMARK  193  A    between atoms: _475  and  _476
REMARK  194  A    between atoms: _479  and  _481
REMARK  195  A    between atoms: _481  and  _482
REMARK  196  A    between atoms: _481  and  _484
REMARK  197  A    between atoms: _487  and  _489
REMARK  198  A    between atoms: _489  and  _490
REMARK  199  A    between atoms: _489  and  _492
REMARK  200  A    between atoms: _492  and  _493
REMARK  201  A    between atoms: _496  and  _498
REMARK  202  A    between atoms: _498  and  _499
REMARK  203  A    between atoms: _498  and  _501
REMARK  204  A    between atoms: _501  and  _502
REMARK  205  A    between atoms: _506  and  _507
REMARK  206  A    between atoms: _512  and  _514
REMARK  207  A    between atoms: _514  and  _515
REMARK  208  A    between atoms: _514  and  _517
REMARK  209  A    between atoms: _520  and  _522
REMARK  210  A    between atoms: _522  and  _523
REMARK  211  A    between atoms: _522  and  _525
REMARK  212  A    between atoms: _525  and  _526
REMARK  213  A    between atoms: _531  and  _533
REMARK  214  A    between atoms: _533  and  _534
REMARK  215  A    between atoms: _533  and  _536
REMARK  216  A    between atoms: _536  and  _537
REMARK  217  A    between atoms: _540  and  _542
REMARK  218  A    between atoms: _542  and  _543
REMARK  219  A    between atoms: _542  and  _545
REMARK  220  A    between atoms: _545  and  _546
REMARK  221  A    between atoms: _549  and  _551
REMARK  222  A    between atoms: _551  and  _552
REMARK  223  A    between atoms: _554  and  _556
REMARK  224  A    between atoms: _556  and  _557
REMARK  225  A    between atoms: _556  and  _559
REMARK  226  A    between atoms: _559  and  _560
REMARK  227  A    between atoms: _560  and  _561
REMARK  228  A    between atoms: _561  and  _562
REMARK                            x       y       z     vdW  Elec       q    Type
REMARK                         _______ _______ _______ _____ _____    ______ ____
ROOT
ATOM      1  O   HOH     1      -2.069   9.093   8.734  0.00  0.00    +0.000 OA
ENDROOT
TORSDOF 0
REMARK  Name = ../refined-set-2016/1dif/1dif_pocket.pdb
REMARK  228 active torsions:
REMARK  status: ('A' for Active; 'I' for Inactive)
REMARK    1  A    between atoms: _1  and  _3
REMARK    2  A    between atoms: _3  and  _4
REMARK    3  A    between atoms: _3  and  _6
REMARK    4  A    between atoms: _6  and  _7
REMARK    5  A    between atoms: _7  and  _8
REMARK    6  A    between atoms: _8  and  _9
REMARK    7  A    between atoms: _19  and  _20
REMARK    8  A    between atoms: _25  and  _27
REMARK    9  A    between atoms: _27  and  _28
REMARK   10  A    between atoms: _27  and  _30
REMARK   11  A    between atoms: _30  and  _31
REMARK   12  A    between atoms: _34  and  _36
REMARK   13  A    between atoms: _36  and  _37
REMARK   14  A    between atoms: _36  and  _39
REMARK   15  A    between atoms: _39  and  _40
REMARK   16  A    between atoms: _43  and  _45
REMARK   17  A    between atoms: _45  and  _46
REMARK   18  A    between atoms: _45  and  _48
REMARK   19  A    between atoms: _48  and  _49
REMARK   20  A    between atoms: _52  and  _54
REMARK   21  A    between atoms: _54  and  _55
REMARK   22  A    between atoms: _54  and  _57
REMARK   23  A    between atoms: _57  and  _58
REMARK   24  A    between atoms: _61  and  _63
REMARK   25  A    between atoms: _63  and  _64
REMARK   26  A    between atoms: _63  and  _66
REMARK   27  A    between atoms: _66  and  _67
REMARK   28  A    between atoms: _70  and  _72
REMARK   29  A    between atoms: _72  and  _73
REMARK   30  A    between atoms: _75  and  _77
REMARK   31  A    between atoms: _77  and  _78
REMARK   32  A    between atoms: _81  and  _83
REMARK   33  A    between atoms: _83  and  _84
REMARK   34  A    between atoms: _83  and  _86
REMARK   35  A    between atoms: _86  and  _87
REMARK   36  A    between atoms: _90  and  _92
REMARK   37  A    between atoms: _92  and  _93
REMARK   38  A    between atoms: _92  and  _95
REMARK   39  A    between atoms: _95  and  _96
REMARK   40  A    between atoms: _99  and  _101
REMARK   41  A    between atoms: _101  and  _102
REMARK   42  A    between atoms: _101  and  _104
REMARK   43  A    between atoms: _104  and  _105
REMARK   44  A    between atoms: _108  and  _110
REMARK   45  A    between atoms: _110  and  _111
REMARK   46  A    between atoms: _110  and  _113
REMARK   47  A    between atoms: _116  and  _118
REMARK   48  A    between atoms: _118  and  _119
REMARK   49  A    between atoms: _118  and  _121
REMARK   50  A    between atoms: _121  and  _122
REMARK   51  A    between atoms: _122  and  _123
REMARK   52  A    between atoms: _123  and  _124
REMARK   53  A    between atoms: _124  and  _125
REMARK   54  A    between atoms: _129  and  _131
REMARK   55  A    between atoms: _131  and  _132
REMARK   56  A    between atoms: _131  and  _134
REMARK   57  A    between atoms: _134  and  _135
REMARK   58  A    between atoms: _135  and  _136
REMARK   59  A    between atoms: _138  and  _140
REMARK   60  A    between atoms: _140  and  _141
REMARK   61  A    between atoms: _140  and  _143
REMARK   62  A    between atoms: _143  and  _144
REMARK   63  A    between atoms: _147  and  _149
REMARK   64  A    between atoms: _149  and  _150
REMARK   65  A    between atoms: _152  and  _154
REMARK   66  A    between atoms: _154  and  _155
REMARK   67  A    between atoms: _157  and  _159
REMARK   68  A    between atoms: _159  and  _160
REMARK   69  A    between atoms: _159  and  _162
REMARK   70  A    between atoms: _162  and  _163
REMARK   71  A    between atoms: _166  and  _168
REMARK   72  A    between atoms: _168  and  _169
REMARK   73  A    between atoms: _171  and  _173
REMARK   74  A    between atoms: _173  and  _174
REMARK   75  A    between atoms: _176  and  _178
REMARK   76  A    between atoms: _178  and  _179
REMARK   77  A    between atoms: _178  and  _181
REMARK   78  A    between atoms: _181  and  _182
REMARK   79  A    between atoms: _188  and  _190
REMARK   80  A    between atoms: _190  and  _191
REMARK   81  A    between atoms: _190  and  _193
REMARK   82  A    between atoms: _193  and  _194
REMARK   83  A    between atoms: _197  and  _199
REMARK   84  A    between atoms: _199  and  _200
REMARK   85  A    between atoms: _199  and  _202
REMARK   86  A    between atoms: _205  and  _207
REMARK   87  A    between atoms: _207  and  _208
REMARK   88  A    between atoms: _207  and  _210
REMARK   89  A    between atoms: _210  and  _211
REMARK   90  A    between atoms: _215  and  _216
REMARK   91  A    between atoms: _221  and  _223
REMARK   92  A    between atoms: _223  and  _224
REMARK   93  A    between atoms: _223  and  _226
REMARK   94  A    between atoms: _226  and  _227
REMARK   95  A    between atoms: _231  and  _232
REMARK   96  A    between atoms: _237  and  _239
REMARK   97  A    between atoms: _239  and  _240
REMARK   98  A    between atoms: _239  and  _242
REMARK   99  A    between atoms: _245  and  _247
REMARK  100  A    between atoms: _247  and  _248
REMARK  101  A    between atoms: _247  and  _250
REMARK  102  A    between atoms: _250  and  _251
REMARK  103  A    between atoms: _256  and  _258
REMARK  104  A    between atoms: _258  and  _259
REMARK  105  A    between atoms: _258  and  _261
REMARK  106  A    between atoms: _261  and  _262
REMARK  107  A    between atoms: _265  and  _267
REMARK  108  A    between atoms: _267  and  _268
REMARK  109  A    between atoms: _267  and  _270
REMARK  110  A    between atoms: _270  and  _271
REMARK  111  A    between atoms: _274  and  _276
REMARK  112  A    between atoms: _276  and  _277
REMARK  113  A    between atoms: _279  and  _281
REMARK  114  A    between atoms: _281  and  _282
REMARK  115  A    between atoms: _281  and  _284
REMARK  116  A    between atoms: _284  and  _285
REMARK  117  A    between atoms: _285  and  _286
REMARK  118  A    between atoms: _286  and  _287
REMARK  119  A    between atoms: _296  and  _298
REMARK  120  A    between atoms: _298  and  _299
REMARK  121  A    between atoms: _298  and  _301
REMARK  122  A    between atoms: _301  and  _302
REMARK  123  A    between atoms: _302  and  _303
REMARK  124  A    between atoms: _303  and  _304
REMARK  125  A    between atoms: _314  and  _315
REMARK  126  A    between atoms: _320  and  _322
REMARK  127  A    between atoms: _322  and  _323
REMARK  128  A    between atoms: _322  and  _325
REMARK  129  A    between atoms: _325  and  _326
REMARK  130  A    between atoms: _329  and  _331
REMARK  131  A    between atoms: _331  and  _332
REMARK  132  A    between atoms: _331  and  _334
REMARK  133  A    between atoms: _334  and  _335
REMARK  134  A    between atoms: _338  and  _340
REMARK  135  A    between atoms: _340  and  _341
REMARK  136  A    between atoms: _340  and  _343
REMARK  137  A    between atoms: _343  and  _344
REMARK  138  A    between atoms: _347  and  _349
REMARK  139  A    between atoms: _349  and  _350
REMARK  140  A    between atoms: _349  and  _352
REMARK  141  A    between atoms: _352  and  _353
REMARK  142  A    between atoms: _356  and  _358
REMARK  143  A    between atoms: _358  and  _359
REMARK  144  A    between atoms: _358  and  _361
REMARK  145  A    between atoms: _361  and  _362
REMARK  146  A    between atoms: _365  and  _367
REMARK  147  A    between atoms: _367  and  _368
REMARK  148  A    between atoms: _370  and  _372
REMARK  149  A    between atoms: _372  and  _373
REMARK  150  A    between atoms: _376  and  _378
REMARK  151  A    between atoms: _378  and  _379
REMARK  152  A    between atoms: _378  and  _381
REMARK  153  A    between atoms: _381  and  _382
REMARK  154  A    between atoms: _385  and  _387
REMARK  155  A    between atoms: _387  and  _388
REMARK  156  A    between atoms: _387  and  _390
REMARK  157  A    between atoms: _390  and  _391
REMARK  158  A    between atoms: _394  and  _396
REMARK  159  A    between atoms: _396  and  _397
REMARK  160  A    between atoms: _396  and  _399
REMARK  161  A    between atoms: _399  and  _400
REMARK  162  A    between atoms: _403  and  _405
REMARK  163  A    between atoms: _405  and  _406
REMARK  164  A    between atoms: _405  and  _408
REMARK  165  A    between atoms: _411  and  _413
REMARK  166  A    between atoms: _413  and  _414
REMARK  167  A    between atoms: _413  and  _416
REMARK  168  A    between atoms: _416  and  _417
REMARK  169  A    between atoms: _417  and  _418
REMARK  170  A    between atoms: _420  and  _422
REMARK  171  A    between atoms: _422  and  _423
REMARK  172  A    between atoms: _422  and  _425
REMARK  173  A    between atoms: _425  and  _426
REMARK  174  A    between atoms: _429  and  _431
REMARK  175  A    between atoms: _431  and  _432
REMARK  176  A    between atoms: _434  and  _436
REMARK  177  A    between atoms: _436  and  _437
REMARK  178  A    between atoms: _439  and  _441
REMARK  179  A    between atoms: _441  and  _442
REMARK  180  A    between atoms: _441  and  _444
REMARK  181  A    between atoms: _444  and  _445
REMARK  182  A    between atoms: _448  and  _450
REMARK  183  A    between atoms: _450  and  _451
REMARK  184  A    between atoms: _453  and  _455
REMARK  185  A    between atoms: _455  and  _456
REMARK  186  A    between atoms: _458  and  _460
REMARK  187  A    between atoms: _460  and  _461
REMARK  188  A    between atoms: _460  and  _463
REMARK  189  A    between atoms: _463  and  _464
REMARK  190  A    between atoms: _470  and  _472
REMARK  191  A    between atoms: _472  and  _473
REMARK  192  A    between atoms: _472  and  _475
REMARK  193  A    between atoms: _475  and  _476
REMARK  194  A    between atoms: _479  and  _481
REMARK  195  A    between atoms: _481  and  _482
REMARK  196  A    between atoms: _481  and  _484
REMARK  197  A    between atoms: _487  and  _489
REMARK  198  A    between atoms: _489  and  _490
REMARK  199  A    between atoms: _489  and  _492
REMARK  200  A    between atoms: _492  and  _493
REMARK  201  A    between atoms: _496  and  _498
REMARK  202  A    between atoms: _498  and  _499
REMARK  203  A    between atoms: _498  and  _501
REMARK  204  A    between atoms: _501  and  _502
REMARK  205  A    between atoms: _506  and  _507
REMARK  206  A    between atoms: _512  and  _514
REMARK  207  A    between atoms: _514  and  _515
REMARK  208  A    between atoms: _514  and  _517
REMARK  209  A    between atoms: _520  and  _522
REMARK  210  A    between atoms: _522  and  _523
REMARK  211  A    between atoms: _522  and  _525
REMARK  212  A    between atoms: _525  and  _526
REMARK  213  A    between atoms: _531  and  _533
REMARK  214  A    between atoms: _533  and  _534
REMARK  215  A    between atoms: _533  and  _536
REMARK  216  A    between atoms: _536  and  _537
REMARK  217  A    between atoms: _540  and  _542
REMARK  218  A    between atoms: _542  and  _543
REMARK  219  A    between atoms: _542  and  _545
REMARK  220  A    between atoms: _545  and  _546
REMARK  221  A    between atoms: _549  and  _551
REMARK  222  A    between atoms: _551  and  _552
REMARK  223  A    between atoms: _554  and  _556
REMARK  224  A    between atoms: _556  and  _557
REMARK  225  A    between atoms: _556  and  _559
REMARK  226  A    between atoms: _559  and  _560
REMARK  227  A    between atoms: _560  and  _561
REMARK  228  A    between atoms: _561  and  _562
REMARK                            x       y       z     vdW  Elec       q    Type
REMARK                         _______ _______ _______ _____ _____    ______ ____
ROOT
ATOM      1  O   HOH     1       5.045  -3.265  12.082  0.00  0.00    +0.000 OA
ENDROOT
TORSDOF 0
REMARK  Name = ../refined-set-2016/1dif/1dif_pocket.pdb
REMARK  228 active torsions:
REMARK  status: ('A' for Active; 'I' for Inactive)
REMARK    1  A    between atoms: _1  and  _3
REMARK    2  A    between atoms: _3  and  _4
REMARK    3  A    between atoms: _3  and  _6
REMARK    4  A    between atoms: _6  and  _7
REMARK    5  A    between atoms: _7  and  _8
REMARK    6  A    between atoms: _8  and  _9
REMARK    7  A    between atoms: _19  and  _20
REMARK    8  A    between atoms: _25  and  _27
REMARK    9  A    between atoms: _27  and  _28
REMARK   10  A    between atoms: _27  and  _30
REMARK   11  A    between atoms: _30  and  _31
REMARK   12  A    between atoms: _34  and  _36
REMARK   13  A    between atoms: _36  and  _37
REMARK   14  A    between atoms: _36  and  _39
REMARK   15  A    between atoms: _39  and  _40
REMARK   16  A    between atoms: _43  and  _45
REMARK   17  A    between atoms: _45  and  _46
REMARK   18  A    between atoms: _45  and  _48
REMARK   19  A    between atoms: _48  and  _49
REMARK   20  A    between atoms: _52  and  _54
REMARK   21  A    between atoms: _54  and  _55
REMARK   22  A    between atoms: _54  and  _57
REMARK   23  A    between atoms: _57  and  _58
REMARK   24  A    between atoms: _61  and  _63
REMARK   25  A    between atoms: _63  and  _64
REMARK   26  A    between atoms: _63  and  _66
REMARK   27  A    between atoms: _66  and  _67
REMARK   28  A    between atoms: _70  and  _72
REMARK   29  A    between atoms: _72  and  _73
REMARK   30  A    between atoms: _75  and  _77
REMARK   31  A    between atoms: _77  and  _78
REMARK   32  A    between atoms: _81  and  _83
REMARK   33  A    between atoms: _83  and  _84
REMARK   34  A    between atoms: _83  and  _86
REMARK   35  A    between atoms: _86  and  _87
REMARK   36  A    between atoms: _90  and  _92
REMARK   37  A    between atoms: _92  and  _93
REMARK   38  A    between atoms: _92  and  _95
REMARK   39  A    between atoms: _95  and  _96
REMARK   40  A    between atoms: _99  and  _101
REMARK   41  A    between atoms: _101  and  _102
REMARK   42  A    between atoms: _101  and  _104
REMARK   43  A    between atoms: _104  and  _105
REMARK   44  A    between atoms: _108  and  _110
REMARK   45  A    between atoms: _110  and  _111
REMARK   46  A    between atoms: _110  and  _113
REMARK   47  A    between atoms: _116  and  _118
REMARK   48  A    between atoms: _118  and  _119
REMARK   49  A    between atoms: _118  and  _121
REMARK   50  A    between atoms: _121  and  _122
REMARK   51  A    between atoms: _122  and  _123
REMARK   52  A    between atoms: _123  and  _124
REMARK   53  A    between atoms: _124  and  _125
REMARK   54  A    between atoms: _129  and  _131
REMARK   55  A    between atoms: _131  and  _132
REMARK   56  A    between atoms: _131  and  _134
REMARK   57  A    between atoms: _134  and  _135
REMARK   58  A    between atoms: _135  and  _136
REMARK   59  A    between atoms: _138  and  _140
REMARK   60  A    between atoms: _140  and  _141
REMARK   61  A    between atoms: _140  and  _143
REMARK   62  A    between atoms: _143  and  _144
REMARK   63  A    between atoms: _147  and  _149
REMARK   64  A    between atoms: _149  and  _150
REMARK   65  A    between atoms: _152  and  _154
REMARK   66  A    between atoms: _154  and  _155
REMARK   67  A    between atoms: _157  and  _159
REMARK   68  A    between atoms: _159  and  _160
REMARK   69  A    between atoms: _159  and  _162
REMARK   70  A    between atoms: _162  and  _163
REMARK   71  A    between atoms: _166  and  _168
REMARK   72  A    between atoms: _168  and  _169
REMARK   73  A    between atoms: _171  and  _173
REMARK   74  A    between atoms: _173  and  _174
REMARK   75  A    between atoms: _176  and  _178
REMARK   76  A    between atoms: _178  and  _179
REMARK   77  A    between atoms: _178  and  _181
REMARK   78  A    between atoms: _181  and  _182
REMARK   79  A    between atoms: _188  and  _190
REMARK   80  A    between atoms: _190  and  _191
REMARK   81  A    between atoms: _190  and  _193
REMARK   82  A    between atoms: _193  and  _194
REMARK   83  A    between atoms: _197  and  _199
REMARK   84  A    between atoms: _199  and  _200
REMARK   85  A    between atoms: _199  and  _202
REMARK   86  A    between atoms: _205  and  _207
REMARK   87  A    between atoms: _207  and  _208
REMARK   88  A    between atoms: _207  and  _210
REMARK   89  A    between atoms: _210  and  _211
REMARK   90  A    between atoms: _215  and  _216
REMARK   91  A    between atoms: _221  and  _223
REMARK   92  A    between atoms: _223  and  _224
REMARK   93  A    between atoms: _223  and  _226
REMARK   94  A    between atoms: _226  and  _227
REMARK   95  A    between atoms: _231  and  _232
REMARK   96  A    between atoms: _237  and  _239
REMARK   97  A    between atoms: _239  and  _240
REMARK   98  A    between atoms: _239  and  _242
REMARK   99  A    between atoms: _245  and  _247
REMARK  100  A    between atoms: _247  and  _248
REMARK  101  A    between atoms: _247  and  _250
REMARK  102  A    between atoms: _250  and  _251
REMARK  103  A    between atoms: _256  and  _258
REMARK  104  A    between atoms: _258  and  _259
REMARK  105  A    between atoms: _258  and  _261
REMARK  106  A    between atoms: _261  and  _262
REMARK  107  A    between atoms: _265  and  _267
REMARK  108  A    between atoms: _267  and  _268
REMARK  109  A    between atoms: _267  and  _270
REMARK  110  A    between atoms: _270  and  _271
REMARK  111  A    between atoms: _274  and  _276
REMARK  112  A    between atoms: _276  and  _277
REMARK  113  A    between atoms: _279  and  _281
REMARK  114  A    between atoms: _281  and  _282
REMARK  115  A    between atoms: _281  and  _284
REMARK  116  A    between atoms: _284  and  _285
REMARK  117  A    between atoms: _285  and  _286
REMARK  118  A    between atoms: _286  and  _287
REMARK  119  A    between atoms: _296  and  _298
REMARK  120  A    between atoms: _298  and  _299
REMARK  121  A    between atoms: _298  and  _301
REMARK  122  A    between atoms: _301  and  _302
REMARK  123  A    between atoms: _302  and  _303
REMARK  124  A    between atoms: _303  and  _304
REMARK  125  A    between atoms: _314  and  _315
REMARK  126  A    between atoms: _320  and  _322
REMARK  127  A    between atoms: _322  and  _323
REMARK  128  A    between atoms: _322  and  _325
REMARK  129  A    between atoms: _325  and  _326
REMARK  130  A    between atoms: _329  and  _331
REMARK  131  A    between atoms: _331  and  _332
REMARK  132  A    between atoms: _331  and  _334
REMARK  133  A    between atoms: _334  and  _335
REMARK  134  A    between atoms: _338  and  _340
REMARK  135  A    between atoms: _340  and  _341
REMARK  136  A    between atoms: _340  and  _343
REMARK  137  A    between atoms: _343  and  _344
REMARK  138  A    between atoms: _347  and  _349
REMARK  139  A    between atoms: _349  and  _350
REMARK  140  A    between atoms: _349  and  _352
REMARK  141  A    between atoms: _352  and  _353
REMARK  142  A    between atoms: _356  and  _358
REMARK  143  A    between atoms: _358  and  _359
REMARK  144  A    between atoms: _358  and  _361
REMARK  145  A    between atoms: _361  and  _362
REMARK  146  A    between atoms: _365  and  _367
REMARK  147  A    between atoms: _367  and  _368
REMARK  148  A    between atoms: _370  and  _372
REMARK  149  A    between atoms: _372  and  _373
REMARK  150  A    between atoms: _376  and  _378
REMARK  151  A    between atoms: _378  and  _379
REMARK  152  A    between atoms: _378  and  _381
REMARK  153  A    between atoms: _381  and  _382
REMARK  154  A    between atoms: _385  and  _387
REMARK  155  A    between atoms: _387  and  _388
REMARK  156  A    between atoms: _387  and  _390
REMARK  157  A    between atoms: _390  and  _391
REMARK  158  A    between atoms: _394  and  _396
REMARK  159  A    between atoms: _396  and  _397
REMARK  160  A    between atoms: _396  and  _399
REMARK  161  A    between atoms: _399  and  _400
REMARK  162  A    between atoms: _403  and  _405
REMARK  163  A    between atoms: _405  and  _406
REMARK  164  A    between atoms: _405  and  _408
REMARK  165  A    between atoms: _411  and  _413
REMARK  166  A    between atoms: _413  and  _414
REMARK  167  A    between atoms: _413  and  _416
REMARK  168  A    between atoms: _416  and  _417
REMARK  169  A    between atoms: _417  and  _418
REMARK  170  A    between atoms: _420  and  _422
REMARK  171  A    between atoms: _422  and  _423
REMARK  172  A    between atoms: _422  and  _425
REMARK  173  A    between atoms: _425  and  _426
REMARK  174  A    between atoms: _429  and  _431
REMARK  175  A    between atoms: _431  and  _432
REMARK  176  A    between atoms: _434  and  _436
REMARK  177  A    between atoms: _436  and  _437
REMARK  178  A    between atoms: _439  and  _441
REMARK  179  A    between atoms: _441  and  _442
REMARK  180  A    between atoms: _441  and  _444
REMARK  181  A    between atoms: _444  and  _445
REMARK  182  A    between atoms: _448  and  _450
REMARK  183  A    between atoms: _450  and  _451
REMARK  184  A    between atoms: _453  and  _455
REMARK  185  A    between atoms: _455  and  _456
REMARK  186  A    between atoms: _458  and  _460
REMARK  187  A    between atoms: _460  and  _461
REMARK  188  A    between atoms: _460  and  _463
REMARK  189  A    between atoms: _463  and  _464
REMARK  190  A    between atoms: _470  and  _472
REMARK  191  A    between atoms: _472  and  _473
REMARK  192  A    between atoms: _472  and  _475
REMARK  193  A    between atoms: _475  and  _476
REMARK  194  A    between atoms: _479  and  _481
REMARK  195  A    between atoms: _481  and  _482
REMARK  196  A    between atoms: _481  and  _484
REMARK  197  A    between atoms: _487  and  _489
REMARK  198  A    between atoms: _489  and  _490
REMARK  199  A    between atoms: _489  and  _492
REMARK  200  A    between atoms: _492  and  _493
REMARK  201  A    between atoms: _496  and  _498
REMARK  202  A    between atoms: _498  and  _499
REMARK  203  A    between atoms: _498  and  _501
REMARK  204  A    between atoms: _501  and  _502
REMARK  205  A    between atoms: _506  and  _507
REMARK  206  A    between atoms: _512  and  _514
REMARK  207  A    between atoms: _514  and  _515
REMARK  208  A    between atoms: _514  and  _517
REMARK  209  A    between atoms: _520  and  _522
REMARK  210  A    between atoms: _522  and  _523
REMARK  211  A    between atoms: _522  and  _525
REMARK  212  A    between atoms: _525  and  _526
REMARK  213  A    between atoms: _531  and  _533
REMARK  214  A    between atoms: _533  and  _534
REMARK  215  A    between atoms: _533  and  _536
REMARK  216  A    between atoms: _536  and  _537
REMARK  217  A    between atoms: _540  and  _542
REMARK  218  A    between atoms: _542  and  _543
REMARK  219  A    between atoms: _542  and  _545
REMARK  220  A    between atoms: _545  and  _546
REMARK  221  A    between atoms: _549  and  _551
REMARK  222  A    between atoms: _551  and  _552
REMARK  223  A    between atoms: _554  and  _556
REMARK  224  A    between atoms: _556  and  _557
REMARK  225  A    between atoms: _556  and  _559
REMARK  226  A    between atoms: _559  and  _560
REMARK  227  A    between atoms: _560  and  _561
REMARK  228  A    between atoms: _561  and  _562
REMARK                            x       y       z     vdW  Elec       q    Type
REMARK                         _______ _______ _______ _____ _____    ______ ____
ROOT
ATOM      1  O   HOH     1      15.946  -6.048  21.052  0.00  0.00    +0.000 OA
ENDROOT
TORSDOF 0
REMARK  Name = ../refined-set-2016/1dif/1dif_pocket.pdb
REMARK  228 active torsions:
REMARK  status: ('A' for Active; 'I' for Inactive)
REMARK    1  A    between atoms: _1  and  _3
REMARK    2  A    between atoms: _3  and  _4
REMARK    3  A    between atoms: _3  and  _6
REMARK    4  A    between atoms: _6  and  _7
REMARK    5  A    between atoms: _7  and  _8
REMARK    6  A    between atoms: _8  and  _9
REMARK    7  A    between atoms: _19  and  _20
REMARK    8  A    between atoms: _25  and  _27
REMARK    9  A    between atoms: _27  and  _28
REMARK   10  A    between atoms: _27  and  _30
REMARK   11  A    between atoms: _30  and  _31
REMARK   12  A    between atoms: _34  and  _36
REMARK   13  A    between atoms: _36  and  _37
REMARK   14  A    between atoms: _36  and  _39
REMARK   15  A    between atoms: _39  and  _40
REMARK   16  A    between atoms: _43  and  _45
REMARK   17  A    between atoms: _45  and  _46
REMARK   18  A    between atoms: _45  and  _48
REMARK   19  A    between atoms: _48  and  _49
REMARK   20  A    between atoms: _52  and  _54
REMARK   21  A    between atoms: _54  and  _55
REMARK   22  A    between atoms: _54  and  _57
REMARK   23  A    between atoms: _57  and  _58
REMARK   24  A    between atoms: _61  and  _63
REMARK   25  A    between atoms: _63  and  _64
REMARK   26  A    between atoms: _63  and  _66
REMARK   27  A    between atoms: _66  and  _67
REMARK   28  A    between atoms: _70  and  _72
REMARK   29  A    between atoms: _72  and  _73
REMARK   30  A    between atoms: _75  and  _77
REMARK   31  A    between atoms: _77  and  _78
REMARK   32  A    between atoms: _81  and  _83
REMARK   33  A    between atoms: _83  and  _84
REMARK   34  A    between atoms: _83  and  _86
REMARK   35  A    between atoms: _86  and  _87
REMARK   36  A    between atoms: _90  and  _92
REMARK   37  A    between atoms: _92  and  _93
REMARK   38  A    between atoms: _92  and  _95
REMARK   39  A    between atoms: _95  and  _96
REMARK   40  A    between atoms: _99  and  _101
REMARK   41  A    between atoms: _101  and  _102
REMARK   42  A    between atoms: _101  and  _104
REMARK   43  A    between atoms: _104  and  _105
REMARK   44  A    between atoms: _108  and  _110
REMARK   45  A    between atoms: _110  and  _111
REMARK   46  A    between atoms: _110  and  _113
REMARK   47  A    between atoms: _116  and  _118
REMARK   48  A    between atoms: _118  and  _119
REMARK   49  A    between atoms: _118  and  _121
REMARK   50  A    between atoms: _121  and  _122
REMARK   51  A    between atoms: _122  and  _123
REMARK   52  A    between atoms: _123  and  _124
REMARK   53  A    between atoms: _124  and  _125
REMARK   54  A    between atoms: _129  and  _131
REMARK   55  A    between atoms: _131  and  _132
REMARK   56  A    between atoms: _131  and  _134
REMARK   57  A    between atoms: _134  and  _135
REMARK   58  A    between atoms: _135  and  _136
REMARK   59  A    between atoms: _138  and  _140
REMARK   60  A    between atoms: _140  and  _141
REMARK   61  A    between atoms: _140  and  _143
REMARK   62  A    between atoms: _143  and  _144
REMARK   63  A    between atoms: _147  and  _149
REMARK   64  A    between atoms: _149  and  _150
REMARK   65  A    between atoms: _152  and  _154
REMARK   66  A    between atoms: _154  and  _155
REMARK   67  A    between atoms: _157  and  _159
REMARK   68  A    between atoms: _159  and  _160
REMARK   69  A    between atoms: _159  and  _162
REMARK   70  A    between atoms: _162  and  _163
REMARK   71  A    between atoms: _166  and  _168
REMARK   72  A    between atoms: _168  and  _169
REMARK   73  A    between atoms: _171  and  _173
REMARK   74  A    between atoms: _173  and  _174
REMARK   75  A    between atoms: _176  and  _178
REMARK   76  A    between atoms: _178  and  _179
REMARK   77  A    between atoms: _178  and  _181
REMARK   78  A    between atoms: _181  and  _182
REMARK   79  A    between atoms: _188  and  _190
REMARK   80  A    between atoms: _190  and  _191
REMARK   81  A    between atoms: _190  and  _193
REMARK   82  A    between atoms: _193  and  _194
REMARK   83  A    between atoms: _197  and  _199
REMARK   84  A    between atoms: _199  and  _200
REMARK   85  A    between atoms: _199  and  _202
REMARK   86  A    between atoms: _205  and  _207
REMARK   87  A    between atoms: _207  and  _208
REMARK   88  A    between atoms: _207  and  _210
REMARK   89  A    between atoms: _210  and  _211
REMARK   90  A    between atoms: _215  and  _216
REMARK   91  A    between atoms: _221  and  _223
REMARK   92  A    between atoms: _223  and  _224
REMARK   93  A    between atoms: _223  and  _226
REMARK   94  A    between atoms: _226  and  _227
REMARK   95  A    between atoms: _231  and  _232
REMARK   96  A    between atoms: _237  and  _239
REMARK   97  A    between atoms: _239  and  _240
REMARK   98  A    between atoms: _239  and  _242
REMARK   99  A    between atoms: _245  and  _247
REMARK  100  A    between atoms: _247  and  _248
REMARK  101  A    between atoms: _247  and  _250
REMARK  102  A    between atoms: _250  and  _251
REMARK  103  A    between atoms: _256  and  _258
REMARK  104  A    between atoms: _258  and  _259
REMARK  105  A    between atoms: _258  and  _261
REMARK  106  A    between atoms: _261  and  _262
REMARK  107  A    between atoms: _265  and  _267
REMARK  108  A    between atoms: _267  and  _268
REMARK  109  A    between atoms: _267  and  _270
REMARK  110  A    between atoms: _270  and  _271
REMARK  111  A    between atoms: _274  and  _276
REMARK  112  A    between atoms: _276  and  _277
REMARK  113  A    between atoms: _279  and  _281
REMARK  114  A    between atoms: _281  and  _282
REMARK  115  A    between atoms: _281  and  _284
REMARK  116  A    between atoms: _284  and  _285
REMARK  117  A    between atoms: _285  and  _286
REMARK  118  A    between atoms: _286  and  _287
REMARK  119  A    between atoms: _296  and  _298
REMARK  120  A    between atoms: _298  and  _299
REMARK  121  A    between atoms: _298  and  _301
REMARK  122  A    between atoms: _301  and  _302
REMARK  123  A    between atoms: _302  and  _303
REMARK  124  A    between atoms: _303  and  _304
REMARK  125  A    between atoms: _314  and  _315
REMARK  126  A    between atoms: _320  and  _322
REMARK  127  A    between atoms: _322  and  _323
REMARK  128  A    between atoms: _322  and  _325
REMARK  129  A    between atoms: _325  and  _326
REMARK  130  A    between atoms: _329  and  _331
REMARK  131  A    between atoms: _331  and  _332
REMARK  132  A    between atoms: _331  and  _334
REMARK  133  A    between atoms: _334  and  _335
REMARK  134  A    between atoms: _338  and  _340
REMARK  135  A    between atoms: _340  and  _341
REMARK  136  A    between atoms: _340  and  _343
REMARK  137  A    between atoms: _343  and  _344
REMARK  138  A    between atoms: _347  and  _349
REMARK  139  A    between atoms: _349  and  _350
REMARK  140  A    between atoms: _349  and  _352
REMARK  141  A    between atoms: _352  and  _353
REMARK  142  A    between atoms: _356  and  _358
REMARK  143  A    between atoms: _358  and  _359
REMARK  144  A    between atoms: _358  and  _361
REMARK  145  A    between atoms: _361  and  _362
REMARK  146  A    between atoms: _365  and  _367
REMARK  147  A    between atoms: _367  and  _368
REMARK  148  A    between atoms: _370  and  _372
REMARK  149  A    between atoms: _372  and  _373
REMARK  150  A    between atoms: _376  and  _378
REMARK  151  A    between atoms: _378  and  _379
REMARK  152  A    between atoms: _378  and  _381
REMARK  153  A    between atoms: _381  and  _382
REMARK  154  A    between atoms: _385  and  _387
REMARK  155  A    between atoms: _387  and  _388
REMARK  156  A    between atoms: _387  and  _390
REMARK  157  A    between atoms: _390  and  _391
REMARK  158  A    between atoms: _394  and  _396
REMARK  159  A    between atoms: _396  and  _397
REMARK  160  A    between atoms: _396  and  _399
REMARK  161  A    between atoms: _399  and  _400
REMARK  162  A    between atoms: _403  and  _405
REMARK  163  A    between atoms: _405  and  _406
REMARK  164  A    between atoms: _405  and  _408
REMARK  165  A    between atoms: _411  and  _413
REMARK  166  A    between atoms: _413  and  _414
REMARK  167  A    between atoms: _413  and  _416
REMARK  168  A    between atoms: _416  and  _417
REMARK  169  A    between atoms: _417  and  _418
REMARK  170  A    between atoms: _420  and  _422
REMARK  171  A    between atoms: _422  and  _423
REMARK  172  A    between atoms: _422  and  _425
REMARK  173  A    between atoms: _425  and  _426
REMARK  174  A    between atoms: _429  and  _431
REMARK  175  A    between atoms: _431  and  _432
REMARK  176  A    between atoms: _434  and  _436
REMARK  177  A    between atoms: _436  and  _437
REMARK  178  A    between atoms: _439  and  _441
REMARK  179  A    between atoms: _441  and  _442
REMARK  180  A    between atoms: _441  and  _444
REMARK  181  A    between atoms: _444  and  _445
REMARK  182  A    between atoms: _448  and  _450
REMARK  183  A    between atoms: _450  and  _451
REMARK  184  A    between atoms: _453  and  _455
REMARK  185  A    between atoms: _455  and  _456
REMARK  186  A    between atoms: _458  and  _460
REMARK  187  A    between atoms: _460  and  _461
REMARK  188  A    between atoms: _460  and  _463
REMARK  189  A    between atoms: _463  and  _464
REMARK  190  A    between atoms: _470  and  _472
REMARK  191  A    between atoms: _472  and  _473
REMARK  192  A    between atoms: _472  and  _475
REMARK  193  A    between atoms: _475  and  _476
REMARK  194  A    between atoms: _479  and  _481
REMARK  195  A    between atoms: _481  and  _482
REMARK  196  A    between atoms: _481  and  _484
REMARK  197  A    between atoms: _487  and  _489
REMARK  198  A    between atoms: _489  and  _490
REMARK  199  A    between atoms: _489  and  _492
REMARK  200  A    between atoms: _492  and  _493
REMARK  201  A    between atoms: _496  and  _498
REMARK  202  A    between atoms: _498  and  _499
REMARK  203  A    between atoms: _498  and  _501
REMARK  204  A    between atoms: _501  and  _502
REMARK  205  A    between atoms: _506  and  _507
REMARK  206  A    between atoms: _512  and  _514
REMARK  207  A    between atoms: _514  and  _515
REMARK  208  A    between atoms: _514  and  _517
REMARK  209  A    between atoms: _520  and  _522
REMARK  210  A    between atoms: _522  and  _523
REMARK  211  A    between atoms: _522  and  _525
REMARK  212  A    between atoms: _525  and  _526
REMARK  213  A    between atoms: _531  and  _533
REMARK  214  A    between atoms: _533  and  _534
REMARK  215  A    between atoms: _533  and  _536
REMARK  216  A    between atoms: _536  and  _537
REMARK  217  A    between atoms: _540  and  _542
REMARK  218  A    between atoms: _542  and  _543
REMARK  219  A    between atoms: _542  and  _545
REMARK  220  A    between atoms: _545  and  _546
REMARK  221  A    between atoms: _549  and  _551
REMARK  222  A    between atoms: _551  and  _552
REMARK  223  A    between atoms: _554  and  _556
REMARK  224  A    between atoms: _556  and  _557
REMARK  225  A    between atoms: _556  and  _559
REMARK  226  A    between atoms: _559  and  _560
REMARK  227  A    between atoms: _560  and  _561
REMARK  228  A    between atoms: _561  and  _562
REMARK                            x       y       z     vdW  Elec       q    Type
REMARK                         _______ _______ _______ _____ _____    ______ ____
ROOT
ATOM      1  O   HOH     1       5.890  13.522  12.226  0.00  0.00    +0.000 OA
ENDROOT
TORSDOF 0
REMARK  Name = ../refined-set-2016/1dif/1dif_pocket.pdb
REMARK  228 active torsions:
REMARK  status: ('A' for Active; 'I' for Inactive)
REMARK    1  A    between atoms: _1  and  _3
REMARK    2  A    between atoms: _3  and  _4
REMARK    3  A    between atoms: _3  and  _6
REMARK    4  A    between atoms: _6  and  _7
REMARK    5  A    between atoms: _7  and  _8
REMARK    6  A    between atoms: _8  and  _9
REMARK    7  A    between atoms: _19  and  _20
REMARK    8  A    between atoms: _25  and  _27
REMARK    9  A    between atoms: _27  and  _28
REMARK   10  A    between atoms: _27  and  _30
REMARK   11  A    between atoms: _30  and  _31
REMARK   12  A    between atoms: _34  and  _36
REMARK   13  A    between atoms: _36  and  _37
REMARK   14  A    between atoms: _36  and  _39
REMARK   15  A    between atoms: _39  and  _40
REMARK   16  A    between atoms: _43  and  _45
REMARK   17  A    between atoms: _45  and  _46
REMARK   18  A    between atoms: _45  and  _48
REMARK   19  A    between atoms: _48  and  _49
REMARK   20  A    between atoms: _52  and  _54
REMARK   21  A    between atoms: _54  and  _55
REMARK   22  A    between atoms: _54  and  _57
REMARK   23  A    between atoms: _57  and  _58
REMARK   24  A    between atoms: _61  and  _63
REMARK   25  A    between atoms: _63  and  _64
REMARK   26  A    between atoms: _63  and  _66
REMARK   27  A    between atoms: _66  and  _67
REMARK   28  A    between atoms: _70  and  _72
REMARK   29  A    between atoms: _72  and  _73
REMARK   30  A    between atoms: _75  and  _77
REMARK   31  A    between atoms: _77  and  _78
REMARK   32  A    between atoms: _81  and  _83
REMARK   33  A    between atoms: _83  and  _84
REMARK   34  A    between atoms: _83  and  _86
REMARK   35  A    between atoms: _86  and  _87
REMARK   36  A    between atoms: _90  and  _92
REMARK   37  A    between atoms: _92  and  _93
REMARK   38  A    between atoms: _92  and  _95
REMARK   39  A    between atoms: _95  and  _96
REMARK   40  A    between atoms: _99  and  _101
REMARK   41  A    between atoms: _101  and  _102
REMARK   42  A    between atoms: _101  and  _104
REMARK   43  A    between atoms: _104  and  _105
REMARK   44  A    between atoms: _108  and  _110
REMARK   45  A    between atoms: _110  and  _111
REMARK   46  A    between atoms: _110  and  _113
REMARK   47  A    between atoms: _116  and  _118
REMARK   48  A    between atoms: _118  and  _119
REMARK   49  A    between atoms: _118  and  _121
REMARK   50  A    between atoms: _121  and  _122
REMARK   51  A    between atoms: _122  and  _123
REMARK   52  A    between atoms: _123  and  _124
REMARK   53  A    between atoms: _124  and  _125
REMARK   54  A    between atoms: _129  and  _131
REMARK   55  A    between atoms: _131  and  _132
REMARK   56  A    between atoms: _131  and  _134
REMARK   57  A    between atoms: _134  and  _135
REMARK   58  A    between atoms: _135  and  _136
REMARK   59  A    between atoms: _138  and  _140
REMARK   60  A    between atoms: _140  and  _141
REMARK   61  A    between atoms: _140  and  _143
REMARK   62  A    between atoms: _143  and  _144
REMARK   63  A    between atoms: _147  and  _149
REMARK   64  A    between atoms: _149  and  _150
REMARK   65  A    between atoms: _152  and  _154
REMARK   66  A    between atoms: _154  and  _155
REMARK   67  A    between atoms: _157  and  _159
REMARK   68  A    between atoms: _159  and  _160
REMARK   69  A    between atoms: _159  and  _162
REMARK   70  A    between atoms: _162  and  _163
REMARK   71  A    between atoms: _166  and  _168
REMARK   72  A    between atoms: _168  and  _169
REMARK   73  A    between atoms: _171  and  _173
REMARK   74  A    between atoms: _173  and  _174
REMARK   75  A    between atoms: _176  and  _178
REMARK   76  A    between atoms: _178  and  _179
REMARK   77  A    between atoms: _178  and  _181
REMARK   78  A    between atoms: _181  and  _182
REMARK   79  A    between atoms: _188  and  _190
REMARK   80  A    between atoms: _190  and  _191
REMARK   81  A    between atoms: _190  and  _193
REMARK   82  A    between atoms: _193  and  _194
REMARK   83  A    between atoms: _197  and  _199
REMARK   84  A    between atoms: _199  and  _200
REMARK   85  A    between atoms: _199  and  _202
REMARK   86  A    between atoms: _205  and  _207
REMARK   87  A    between atoms: _207  and  _208
REMARK   88  A    between atoms: _207  and  _210
REMARK   89  A    between atoms: _210  and  _211
REMARK   90  A    between atoms: _215  and  _216
REMARK   91  A    between atoms: _221  and  _223
REMARK   92  A    between atoms: _223  and  _224
REMARK   93  A    between atoms: _223  and  _226
REMARK   94  A    between atoms: _226  and  _227
REMARK   95  A    between atoms: _231  and  _232
REMARK   96  A    between atoms: _237  and  _239
REMARK   97  A    between atoms: _239  and  _240
REMARK   98  A    between atoms: _239  and  _242
REMARK   99  A    between atoms: _245  and  _247
REMARK  100  A    between atoms: _247  and  _248
REMARK  101  A    between atoms: _247  and  _250
REMARK  102  A    between atoms: _250  and  _251
REMARK  103  A    between atoms: _256  and  _258
REMARK  104  A    between atoms: _258  and  _259
REMARK  105  A    between atoms: _258  and  _261
REMARK  106  A    between atoms: _261  and  _262
REMARK  107  A    between atoms: _265  and  _267
REMARK  108  A    between atoms: _267  and  _268
REMARK  109  A    between atoms: _267  and  _270
REMARK  110  A    between atoms: _270  and  _271
REMARK  111  A    between atoms: _274  and  _276
REMARK  112  A    between atoms: _276  and  _277
REMARK  113  A    between atoms: _279  and  _281
REMARK  114  A    between atoms: _281  and  _282
REMARK  115  A    between atoms: _281  and  _284
REMARK  116  A    between atoms: _284  and  _285
REMARK  117  A    between atoms: _285  and  _286
REMARK  118  A    between atoms: _286  and  _287
REMARK  119  A    between atoms: _296  and  _298
REMARK  120  A    between atoms: _298  and  _299
REMARK  121  A    between atoms: _298  and  _301
REMARK  122  A    between atoms: _301  and  _302
REMARK  123  A    between atoms: _302  and  _303
REMARK  124  A    between atoms: _303  and  _304
REMARK  125  A    between atoms: _314  and  _315
REMARK  126  A    between atoms: _320  and  _322
REMARK  127  A    between atoms: _322  and  _323
REMARK  128  A    between atoms: _322  and  _325
REMARK  129  A    between atoms: _325  and  _326
REMARK  130  A    between atoms: _329  and  _331
REMARK  131  A    between atoms: _331  and  _332
REMARK  132  A    between atoms: _331  and  _334
REMARK  133  A    between atoms: _334  and  _335
REMARK  134  A    between atoms: _338  and  _340
REMARK  135  A    between atoms: _340  and  _341
REMARK  136  A    between atoms: _340  and  _343
REMARK  137  A    between atoms: _343  and  _344
REMARK  138  A    between atoms: _347  and  _349
REMARK  139  A    between atoms: _349  and  _350
REMARK  140  A    between atoms: _349  and  _352
REMARK  141  A    between atoms: _352  and  _353
REMARK  142  A    between atoms: _356  and  _358
REMARK  143  A    between atoms: _358  and  _359
REMARK  144  A    between atoms: _358  and  _361
REMARK  145  A    between atoms: _361  and  _362
REMARK  146  A    between atoms: _365  and  _367
REMARK  147  A    between atoms: _367  and  _368
REMARK  148  A    between atoms: _370  and  _372
REMARK  149  A    between atoms: _372  and  _373
REMARK  150  A    between atoms: _376  and  _378
REMARK  151  A    between atoms: _378  and  _379
REMARK  152  A    between atoms: _378  and  _381
REMARK  153  A    between atoms: _381  and  _382
REMARK  154  A    between atoms: _385  and  _387
REMARK  155  A    between atoms: _387  and  _388
REMARK  156  A    between atoms: _387  and  _390
REMARK  157  A    between atoms: _390  and  _391
REMARK  158  A    between atoms: _394  and  _396
REMARK  159  A    between atoms: _396  and  _397
REMARK  160  A    between atoms: _396  and  _399
REMARK  161  A    between atoms: _399  and  _400
REMARK  162  A    between atoms: _403  and  _405
REMARK  163  A    between atoms: _405  and  _406
REMARK  164  A    between atoms: _405  and  _408
REMARK  165  A    between atoms: _411  and  _413
REMARK  166  A    between atoms: _413  and  _414
REMARK  167  A    between atoms: _413  and  _416
REMARK  168  A    between atoms: _416  and  _417
REMARK  169  A    between atoms: _417  and  _418
REMARK  170  A    between atoms: _420  and  _422
REMARK  171  A    between atoms: _422  and  _423
REMARK  172  A    between atoms: _422  and  _425
REMARK  173  A    between atoms: _425  and  _426
REMARK  174  A    between atoms: _429  and  _431
REMARK  175  A    between atoms: _431  and  _432
REMARK  176  A    between atoms: _434  and  _436
REMARK  177  A    between atoms: _436  and  _437
REMARK  178  A    between atoms: _439  and  _441
REMARK  179  A    between atoms: _441  and  _442
REMARK  180  A    between atoms: _441  and  _444
REMARK  181  A    between atoms: _444  and  _445
REMARK  182  A    between atoms: _448  and  _450
REMARK  183  A    between atoms: _450  and  _451
REMARK  184  A    between atoms: _453  and  _455
REMARK  185  A    between atoms: _455  and  _456
REMARK  186  A    between atoms: _458  and  _460
REMARK  187  A    between atoms: _460  and  _461
REMARK  188  A    between atoms: _460  and  _463
REMARK  189  A    between atoms: _463  and  _464
REMARK  190  A    between atoms: _470  and  _472
REMARK  191  A    between atoms: _472  and  _473
REMARK  192  A    between atoms: _472  and  _475
REMARK  193  A    between atoms: _475  and  _476
REMARK  194  A    between atoms: _479  and  _481
REMARK  195  A    between atoms: _481  and  _482
REMARK  196  A    between atoms: _481  and  _484
REMARK  197  A    between atoms: _487  and  _489
REMARK  198  A    between atoms: _489  and  _490
REMARK  199  A    between atoms: _489  and  _492
REMARK  200  A    between atoms: _492  and  _493
REMARK  201  A    between atoms: _496  and  _498
REMARK  202  A    between atoms: _498  and  _499
REMARK  203  A    between atoms: _498  and  _501
REMARK  204  A    between atoms: _501  and  _502
REMARK  205  A    between atoms: _506  and  _507
REMARK  206  A    between atoms: _512  and  _514
REMARK  207  A    between atoms: _514  and  _515
REMARK  208  A    between atoms: _514  and  _517
REMARK  209  A    between atoms: _520  and  _522
REMARK  210  A    between atoms: _522  and  _523
REMARK  211  A    between atoms: _522  and  _525
REMARK  212  A    between atoms: _525  and  _526
REMARK  213  A    between atoms: _531  and  _533
REMARK  214  A    between atoms: _533  and  _534
REMARK  215  A    between atoms: _533  and  _536
REMARK  216  A    between atoms: _536  and  _537
REMARK  217  A    between atoms: _540  and  _542
REMARK  218  A    between atoms: _542  and  _543
REMARK  219  A    between atoms: _542  and  _545
REMARK  220  A    between atoms: _545  and  _546
REMARK  221  A    between atoms: _549  and  _551
REMARK  222  A    between atoms: _551  and  _552
REMARK  223  A    between atoms: _554  and  _556
REMARK  224  A    between atoms: _556  and  _557
REMARK  225  A    between atoms: _556  and  _559
REMARK  226  A    between atoms: _559  and  _560
REMARK  227  A    between atoms: _560  and  _561
REMARK  228  A    between atoms: _561  and  _562
REMARK                            x       y       z     vdW  Elec       q    Type
REMARK                         _______ _______ _______ _____ _____    ______ ____
ROOT
ATOM      1  O   HOH     1       8.112 -11.637  16.338  0.00  0.00    +0.000 OA
ENDROOT
TORSDOF 0
REMARK  Name = ../refined-set-2016/1dif/1dif_pocket.pdb
REMARK  228 active torsions:
REMARK  status: ('A' for Active; 'I' for Inactive)
REMARK    1  A    between atoms: _1  and  _3
REMARK    2  A    between atoms: _3  and  _4
REMARK    3  A    between atoms: _3  and  _6
REMARK    4  A    between atoms: _6  and  _7
REMARK    5  A    between atoms: _7  and  _8
REMARK    6  A    between atoms: _8  and  _9
REMARK    7  A    between atoms: _19  and  _20
REMARK    8  A    between atoms: _25  and  _27
REMARK    9  A    between atoms: _27  and  _28
REMARK   10  A    between atoms: _27  and  _30
REMARK   11  A    between atoms: _30  and  _31
REMARK   12  A    between atoms: _34  and  _36
REMARK   13  A    between atoms: _36  and  _37
REMARK   14  A    between atoms: _36  and  _39
REMARK   15  A    between atoms: _39  and  _40
REMARK   16  A    between atoms: _43  and  _45
REMARK   17  A    between atoms: _45  and  _46
REMARK   18  A    between atoms: _45  and  _48
REMARK   19  A    between atoms: _48  and  _49
REMARK   20  A    between atoms: _52  and  _54
REMARK   21  A    between atoms: _54  and  _55
REMARK   22  A    between atoms: _54  and  _57
REMARK   23  A    between atoms: _57  and  _58
REMARK   24  A    between atoms: _61  and  _63
REMARK   25  A    between atoms: _63  and  _64
REMARK   26  A    between atoms: _63  and  _66
REMARK   27  A    between atoms: _66  and  _67
REMARK   28  A    between atoms: _70  and  _72
REMARK   29  A    between atoms: _72  and  _73
REMARK   30  A    between atoms: _75  and  _77
REMARK   31  A    between atoms: _77  and  _78
REMARK   32  A    between atoms: _81  and  _83
REMARK   33  A    between atoms: _83  and  _84
REMARK   34  A    between atoms: _83  and  _86
REMARK   35  A    between atoms: _86  and  _87
REMARK   36  A    between atoms: _90  and  _92
REMARK   37  A    between atoms: _92  and  _93
REMARK   38  A    between atoms: _92  and  _95
REMARK   39  A    between atoms: _95  and  _96
REMARK   40  A    between atoms: _99  and  _101
REMARK   41  A    between atoms: _101  and  _102
REMARK   42  A    between atoms: _101  and  _104
REMARK   43  A    between atoms: _104  and  _105
REMARK   44  A    between atoms: _108  and  _110
REMARK   45  A    between atoms: _110  and  _111
REMARK   46  A    between atoms: _110  and  _113
REMARK   47  A    between atoms: _116  and  _118
REMARK   48  A    between atoms: _118  and  _119
REMARK   49  A    between atoms: _118  and  _121
REMARK   50  A    between atoms: _121  and  _122
REMARK   51  A    between atoms: _122  and  _123
REMARK   52  A    between atoms: _123  and  _124
REMARK   53  A    between atoms: _124  and  _125
REMARK   54  A    between atoms: _129  and  _131
REMARK   55  A    between atoms: _131  and  _132
REMARK   56  A    between atoms: _131  and  _134
REMARK   57  A    between atoms: _134  and  _135
REMARK   58  A    between atoms: _135  and  _136
REMARK   59  A    between atoms: _138  and  _140
REMARK   60  A    between atoms: _140  and  _141
REMARK   61  A    between atoms: _140  and  _143
REMARK   62  A    between atoms: _143  and  _144
REMARK   63  A    between atoms: _147  and  _149
REMARK   64  A    between atoms: _149  and  _150
REMARK   65  A    between atoms: _152  and  _154
REMARK   66  A    between atoms: _154  and  _155
REMARK   67  A    between atoms: _157  and  _159
REMARK   68  A    between atoms: _159  and  _160
REMARK   69  A    between atoms: _159  and  _162
REMARK   70  A    between atoms: _162  and  _163
REMARK   71  A    between atoms: _166  and  _168
REMARK   72  A    between atoms: _168  and  _169
REMARK   73  A    between atoms: _171  and  _173
REMARK   74  A    between atoms: _173  and  _174
REMARK   75  A    between atoms: _176  and  _178
REMARK   76  A    between atoms: _178  and  _179
REMARK   77  A    between atoms: _178  and  _181
REMARK   78  A    between atoms: _181  and  _182
REMARK   79  A    between atoms: _188  and  _190
REMARK   80  A    between atoms: _190  and  _191
REMARK   81  A    between atoms: _190  and  _193
REMARK   82  A    between atoms: _193  and  _194
REMARK   83  A    between atoms: _197  and  _199
REMARK   84  A    between atoms: _199  and  _200
REMARK   85  A    between atoms: _199  and  _202
REMARK   86  A    between atoms: _205  and  _207
REMARK   87  A    between atoms: _207  and  _208
REMARK   88  A    between atoms: _207  and  _210
REMARK   89  A    between atoms: _210  and  _211
REMARK   90  A    between atoms: _215  and  _216
REMARK   91  A    between atoms: _221  and  _223
REMARK   92  A    between atoms: _223  and  _224
REMARK   93  A    between atoms: _223  and  _226
REMARK   94  A    between atoms: _226  and  _227
REMARK   95  A    between atoms: _231  and  _232
REMARK   96  A    between atoms: _237  and  _239
REMARK   97  A    between atoms: _239  and  _240
REMARK   98  A    between atoms: _239  and  _242
REMARK   99  A    between atoms: _245  and  _247
REMARK  100  A    between atoms: _247  and  _248
REMARK  101  A    between atoms: _247  and  _250
REMARK  102  A    between atoms: _250  and  _251
REMARK  103  A    between atoms: _256  and  _258
REMARK  104  A    between atoms: _258  and  _259
REMARK  105  A    between atoms: _258  and  _261
REMARK  106  A    between atoms: _261  and  _262
REMARK  107  A    between atoms: _265  and  _267
REMARK  108  A    between atoms: _267  and  _268
REMARK  109  A    between atoms: _267  and  _270
REMARK  110  A    between atoms: _270  and  _271
REMARK  111  A    between atoms: _274  and  _276
REMARK  112  A    between atoms: _276  and  _277
REMARK  113  A    between atoms: _279  and  _281
REMARK  114  A    between atoms: _281  and  _282
REMARK  115  A    between atoms: _281  and  _284
REMARK  116  A    between atoms: _284  and  _285
REMARK  117  A    between atoms: _285  and  _286
REMARK  118  A    between atoms: _286  and  _287
REMARK  119  A    between atoms: _296  and  _298
REMARK  120  A    between atoms: _298  and  _299
REMARK  121  A    between atoms: _298  and  _301
REMARK  122  A    between atoms: _301  and  _302
REMARK  123  A    between atoms: _302  and  _303
REMARK  124  A    between atoms: _303  and  _304
REMARK  125  A    between atoms: _314  and  _315
REMARK  126  A    between atoms: _320  and  _322
REMARK  127  A    between atoms: _322  and  _323
REMARK  128  A    between atoms: _322  and  _325
REMARK  129  A    between atoms: _325  and  _326
REMARK  130  A    between atoms: _329  and  _331
REMARK  131  A    between atoms: _331  and  _332
REMARK  132  A    between atoms: _331  and  _334
REMARK  133  A    between atoms: _334  and  _335
REMARK  134  A    between atoms: _338  and  _340
REMARK  135  A    between atoms: _340  and  _341
REMARK  136  A    between atoms: _340  and  _343
REMARK  137  A    between atoms: _343  and  _344
REMARK  138  A    between atoms: _347  and  _349
REMARK  139  A    between atoms: _349  and  _350
REMARK  140  A    between atoms: _349  and  _352
REMARK  141  A    between atoms: _352  and  _353
REMARK  142  A    between atoms: _356  and  _358
REMARK  143  A    between atoms: _358  and  _359
REMARK  144  A    between atoms: _358  and  _361
REMARK  145  A    between atoms: _361  and  _362
REMARK  146  A    between atoms: _365  and  _367
REMARK  147  A    between atoms: _367  and  _368
REMARK  148  A    between atoms: _370  and  _372
REMARK  149  A    between atoms: _372  and  _373
REMARK  150  A    between atoms: _376  and  _378
REMARK  151  A    between atoms: _378  and  _379
REMARK  152  A    between atoms: _378  and  _381
REMARK  153  A    between atoms: _381  and  _382
REMARK  154  A    between atoms: _385  and  _387
REMARK  155  A    between atoms: _387  and  _388
REMARK  156  A    between atoms: _387  and  _390
REMARK  157  A    between atoms: _390  and  _391
REMARK  158  A    between atoms: _394  and  _396
REMARK  159  A    between atoms: _396  and  _397
REMARK  160  A    between atoms: _396  and  _399
REMARK  161  A    between atoms: _399  and  _400
REMARK  162  A    between atoms: _403  and  _405
REMARK  163  A    between atoms: _405  and  _406
REMARK  164  A    between atoms: _405  and  _408
REMARK  165  A    between atoms: _411  and  _413
REMARK  166  A    between atoms: _413  and  _414
REMARK  167  A    between atoms: _413  and  _416
REMARK  168  A    between atoms: _416  and  _417
REMARK  169  A    between atoms: _417  and  _418
REMARK  170  A    between atoms: _420  and  _422
REMARK  171  A    between atoms: _422  and  _423
REMARK  172  A    between atoms: _422  and  _425
REMARK  173  A    between atoms: _425  and  _426
REMARK  174  A    between atoms: _429  and  _431
REMARK  175  A    between atoms: _431  and  _432
REMARK  176  A    between atoms: _434  and  _436
REMARK  177  A    between atoms: _436  and  _437
REMARK  178  A    between atoms: _439  and  _441
REMARK  179  A    between atoms: _441  and  _442
REMARK  180  A    between atoms: _441  and  _444
REMARK  181  A    between atoms: _444  and  _445
REMARK  182  A    between atoms: _448  and  _450
REMARK  183  A    between atoms: _450  and  _451
REMARK  184  A    between atoms: _453  and  _455
REMARK  185  A    between atoms: _455  and  _456
REMARK  186  A    between atoms: _458  and  _460
REMARK  187  A    between atoms: _460  and  _461
REMARK  188  A    between atoms: _460  and  _463
REMARK  189  A    between atoms: _463  and  _464
REMARK  190  A    between atoms: _470  and  _472
REMARK  191  A    between atoms: _472  and  _473
REMARK  192  A    between atoms: _472  and  _475
REMARK  193  A    between atoms: _475  and  _476
REMARK  194  A    between atoms: _479  and  _481
REMARK  195  A    between atoms: _481  and  _482
REMARK  196  A    between atoms: _481  and  _484
REMARK  197  A    between atoms: _487  and  _489
REMARK  198  A    between atoms: _489  and  _490
REMARK  199  A    between atoms: _489  and  _492
REMARK  200  A    between atoms: _492  and  _493
REMARK  201  A    between atoms: _496  and  _498
REMARK  202  A    between atoms: _498  and  _499
REMARK  203  A    between atoms: _498  and  _501
REMARK  204  A    between atoms: _501  and  _502
REMARK  205  A    between atoms: _506  and  _507
REMARK  206  A    between atoms: _512  and  _514
REMARK  207  A    between atoms: _514  and  _515
REMARK  208  A    between atoms: _514  and  _517
REMARK  209  A    between atoms: _520  and  _522
REMARK  210  A    between atoms: _522  and  _523
REMARK  211  A    between atoms: _522  and  _525
REMARK  212  A    between atoms: _525  and  _526
REMARK  213  A    between atoms: _531  and  _533
REMARK  214  A    between atoms: _533  and  _534
REMARK  215  A    between atoms: _533  and  _536
REMARK  216  A    between atoms: _536  and  _537
REMARK  217  A    between atoms: _540  and  _542
REMARK  218  A    between atoms: _542  and  _543
REMARK  219  A    between atoms: _542  and  _545
REMARK  220  A    between atoms: _545  and  _546
REMARK  221  A    between atoms: _549  and  _551
REMARK  222  A    between atoms: _551  and  _552
REMARK  223  A    between atoms: _554  and  _556
REMARK  224  A    between atoms: _556  and  _557
REMARK  225  A    between atoms: _556  and  _559
REMARK  226  A    between atoms: _559  and  _560
REMARK  227  A    between atoms: _560  and  _561
REMARK  228  A    between atoms: _561  and  _562
REMARK                            x       y       z     vdW  Elec       q    Type
REMARK                         _______ _______ _______ _____ _____    ______ ____
ROOT
ATOM      1  O   HOH     1       5.065  -3.696  23.246  0.00  0.00    +0.000 OA
ENDROOT
TORSDOF 0
REMARK  Name = ../refined-set-2016/1dif/1dif_pocket.pdb
REMARK  228 active torsions:
REMARK  status: ('A' for Active; 'I' for Inactive)
REMARK    1  A    between atoms: _1  and  _3
REMARK    2  A    between atoms: _3  and  _4
REMARK    3  A    between atoms: _3  and  _6
REMARK    4  A    between atoms: _6  and  _7
REMARK    5  A    between atoms: _7  and  _8
REMARK    6  A    between atoms: _8  and  _9
REMARK    7  A    between atoms: _19  and  _20
REMARK    8  A    between atoms: _25  and  _27
REMARK    9  A    between atoms: _27  and  _28
REMARK   10  A    between atoms: _27  and  _30
REMARK   11  A    between atoms: _30  and  _31
REMARK   12  A    between atoms: _34  and  _36
REMARK   13  A    between atoms: _36  and  _37
REMARK   14  A    between atoms: _36  and  _39
REMARK   15  A    between atoms: _39  and  _40
REMARK   16  A    between atoms: _43  and  _45
REMARK   17  A    between atoms: _45  and  _46
REMARK   18  A    between atoms: _45  and  _48
REMARK   19  A    between atoms: _48  and  _49
REMARK   20  A    between atoms: _52  and  _54
REMARK   21  A    between atoms: _54  and  _55
REMARK   22  A    between atoms: _54  and  _57
REMARK   23  A    between atoms: _57  and  _58
REMARK   24  A    between atoms: _61  and  _63
REMARK   25  A    between atoms: _63  and  _64
REMARK   26  A    between atoms: _63  and  _66
REMARK   27  A    between atoms: _66  and  _67
REMARK   28  A    between atoms: _70  and  _72
REMARK   29  A    between atoms: _72  and  _73
REMARK   30  A    between atoms: _75  and  _77
REMARK   31  A    between atoms: _77  and  _78
REMARK   32  A    between atoms: _81  and  _83
REMARK   33  A    between atoms: _83  and  _84
REMARK   34  A    between atoms: _83  and  _86
REMARK   35  A    between atoms: _86  and  _87
REMARK   36  A    between atoms: _90  and  _92
REMARK   37  A    between atoms: _92  and  _93
REMARK   38  A    between atoms: _92  and  _95
REMARK   39  A    between atoms: _95  and  _96
REMARK   40  A    between atoms: _99  and  _101
REMARK   41  A    between atoms: _101  and  _102
REMARK   42  A    between atoms: _101  and  _104
REMARK   43  A    between atoms: _104  and  _105
REMARK   44  A    between atoms: _108  and  _110
REMARK   45  A    between atoms: _110  and  _111
REMARK   46  A    between atoms: _110  and  _113
REMARK   47  A    between atoms: _116  and  _118
REMARK   48  A    between atoms: _118  and  _119
REMARK   49  A    between atoms: _118  and  _121
REMARK   50  A    between atoms: _121  and  _122
REMARK   51  A    between atoms: _122  and  _123
REMARK   52  A    between atoms: _123  and  _124
REMARK   53  A    between atoms: _124  and  _125
REMARK   54  A    between atoms: _129  and  _131
REMARK   55  A    between atoms: _131  and  _132
REMARK   56  A    between atoms: _131  and  _134
REMARK   57  A    between atoms: _134  and  _135
REMARK   58  A    between atoms: _135  and  _136
REMARK   59  A    between atoms: _138  and  _140
REMARK   60  A    between atoms: _140  and  _141
REMARK   61  A    between atoms: _140  and  _143
REMARK   62  A    between atoms: _143  and  _144
REMARK   63  A    between atoms: _147  and  _149
REMARK   64  A    between atoms: _149  and  _150
REMARK   65  A    between atoms: _152  and  _154
REMARK   66  A    between atoms: _154  and  _155
REMARK   67  A    between atoms: _157  and  _159
REMARK   68  A    between atoms: _159  and  _160
REMARK   69  A    between atoms: _159  and  _162
REMARK   70  A    between atoms: _162  and  _163
REMARK   71  A    between atoms: _166  and  _168
REMARK   72  A    between atoms: _168  and  _169
REMARK   73  A    between atoms: _171  and  _173
REMARK   74  A    between atoms: _173  and  _174
REMARK   75  A    between atoms: _176  and  _178
REMARK   76  A    between atoms: _178  and  _179
REMARK   77  A    between atoms: _178  and  _181
REMARK   78  A    between atoms: _181  and  _182
REMARK   79  A    between atoms: _188  and  _190
REMARK   80  A    between atoms: _190  and  _191
REMARK   81  A    between atoms: _190  and  _193
REMARK   82  A    between atoms: _193  and  _194
REMARK   83  A    between atoms: _197  and  _199
REMARK   84  A    between atoms: _199  and  _200
REMARK   85  A    between atoms: _199  and  _202
REMARK   86  A    between atoms: _205  and  _207
REMARK   87  A    between atoms: _207  and  _208
REMARK   88  A    between atoms: _207  and  _210
REMARK   89  A    between atoms: _210  and  _211
REMARK   90  A    between atoms: _215  and  _216
REMARK   91  A    between atoms: _221  and  _223
REMARK   92  A    between atoms: _223  and  _224
REMARK   93  A    between atoms: _223  and  _226
REMARK   94  A    between atoms: _226  and  _227
REMARK   95  A    between atoms: _231  and  _232
REMARK   96  A    between atoms: _237  and  _239
REMARK   97  A    between atoms: _239  and  _240
REMARK   98  A    between atoms: _239  and  _242
REMARK   99  A    between atoms: _245  and  _247
REMARK  100  A    between atoms: _247  and  _248
REMARK  101  A    between atoms: _247  and  _250
REMARK  102  A    between atoms: _250  and  _251
REMARK  103  A    between atoms: _256  and  _258
REMARK  104  A    between atoms: _258  and  _259
REMARK  105  A    between atoms: _258  and  _261
REMARK  106  A    between atoms: _261  and  _262
REMARK  107  A    between atoms: _265  and  _267
REMARK  108  A    between atoms: _267  and  _268
REMARK  109  A    between atoms: _267  and  _270
REMARK  110  A    between atoms: _270  and  _271
REMARK  111  A    between atoms: _274  and  _276
REMARK  112  A    between atoms: _276  and  _277
REMARK  113  A    between atoms: _279  and  _281
REMARK  114  A    between atoms: _281  and  _282
REMARK  115  A    between atoms: _281  and  _284
REMARK  116  A    between atoms: _284  and  _285
REMARK  117  A    between atoms: _285  and  _286
REMARK  118  A    between atoms: _286  and  _287
REMARK  119  A    between atoms: _296  and  _298
REMARK  120  A    between atoms: _298  and  _299
REMARK  121  A    between atoms: _298  and  _301
REMARK  122  A    between atoms: _301  and  _302
REMARK  123  A    between atoms: _302  and  _303
REMARK  124  A    between atoms: _303  and  _304
REMARK  125  A    between atoms: _314  and  _315
REMARK  126  A    between atoms: _320  and  _322
REMARK  127  A    between atoms: _322  and  _323
REMARK  128  A    between atoms: _322  and  _325
REMARK  129  A    between atoms: _325  and  _326
REMARK  130  A    between atoms: _329  and  _331
REMARK  131  A    between atoms: _331  and  _332
REMARK  132  A    between atoms: _331  and  _334
REMARK  133  A    between atoms: _334  and  _335
REMARK  134  A    between atoms: _338  and  _340
REMARK  135  A    between atoms: _340  and  _341
REMARK  136  A    between atoms: _340  and  _343
REMARK  137  A    between atoms: _343  and  _344
REMARK  138  A    between atoms: _347  and  _349
REMARK  139  A    between atoms: _349  and  _350
REMARK  140  A    between atoms: _349  and  _352
REMARK  141  A    between atoms: _352  and  _353
REMARK  142  A    between atoms: _356  and  _358
REMARK  143  A    between atoms: _358  and  _359
REMARK  144  A    between atoms: _358  and  _361
REMARK  145  A    between atoms: _361  and  _362
REMARK  146  A    between atoms: _365  and  _367
REMARK  147  A    between atoms: _367  and  _368
REMARK  148  A    between atoms: _370  and  _372
REMARK  149  A    between atoms: _372  and  _373
REMARK  150  A    between atoms: _376  and  _378
REMARK  151  A    between atoms: _378  and  _379
REMARK  152  A    between atoms: _378  and  _381
REMARK  153  A    between atoms: _381  and  _382
REMARK  154  A    between atoms: _385  and  _387
REMARK  155  A    between atoms: _387  and  _388
REMARK  156  A    between atoms: _387  and  _390
REMARK  157  A    between atoms: _390  and  _391
REMARK  158  A    between atoms: _394  and  _396
REMARK  159  A    between atoms: _396  and  _397
REMARK  160  A    between atoms: _396  and  _399
REMARK  161  A    between atoms: _399  and  _400
REMARK  162  A    between atoms: _403  and  _405
REMARK  163  A    between atoms: _405  and  _406
REMARK  164  A    between atoms: _405  and  _408
REMARK  165  A    between atoms: _411  and  _413
REMARK  166  A    between atoms: _413  and  _414
REMARK  167  A    between atoms: _413  and  _416
REMARK  168  A    between atoms: _416  and  _417
REMARK  169  A    between atoms: _417  and  _418
REMARK  170  A    between atoms: _420  and  _422
REMARK  171  A    between atoms: _422  and  _423
REMARK  172  A    between atoms: _422  and  _425
REMARK  173  A    between atoms: _425  and  _426
REMARK  174  A    between atoms: _429  and  _431
REMARK  175  A    between atoms: _431  and  _432
REMARK  176  A    between atoms: _434  and  _436
REMARK  177  A    between atoms: _436  and  _437
REMARK  178  A    between atoms: _439  and  _441
REMARK  179  A    between atoms: _441  and  _442
REMARK  180  A    between atoms: _441  and  _444
REMARK  181  A    between atoms: _444  and  _445
REMARK  182  A    between atoms: _448  and  _450
REMARK  183  A    between atoms: _450  and  _451
REMARK  184  A    between atoms: _453  and  _455
REMARK  185  A    between atoms: _455  and  _456
REMARK  186  A    between atoms: _458  and  _460
REMARK  187  A    between atoms: _460  and  _461
REMARK  188  A    between atoms: _460  and  _463
REMARK  189  A    between atoms: _463  and  _464
REMARK  190  A    between atoms: _470  and  _472
REMARK  191  A    between atoms: _472  and  _473
REMARK  192  A    between atoms: _472  and  _475
REMARK  193  A    between atoms: _475  and  _476
REMARK  194  A    between atoms: _479  and  _481
REMARK  195  A    between atoms: _481  and  _482
REMARK  196  A    between atoms: _481  and  _484
REMARK  197  A    between atoms: _487  and  _489
REMARK  198  A    between atoms: _489  and  _490
REMARK  199  A    between atoms: _489  and  _492
REMARK  200  A    between atoms: _492  and  _493
REMARK  201  A    between atoms: _496  and  _498
REMARK  202  A    between atoms: _498  and  _499
REMARK  203  A    between atoms: _498  and  _501
REMARK  204  A    between atoms: _501  and  _502
REMARK  205  A    between atoms: _506  and  _507
REMARK  206  A    between atoms: _512  and  _514
REMARK  207  A    between atoms: _514  and  _515
REMARK  208  A    between atoms: _514  and  _517
REMARK  209  A    between atoms: _520  and  _522
REMARK  210  A    between atoms: _522  and  _523
REMARK  211  A    between atoms: _522  and  _525
REMARK  212  A    between atoms: _525  and  _526
REMARK  213  A    between atoms: _531  and  _533
REMARK  214  A    between atoms: _533  and  _534
REMARK  215  A    between atoms: _533  and  _536
REMARK  216  A    between atoms: _536  and  _537
REMARK  217  A    between atoms: _540  and  _542
REMARK  218  A    between atoms: _542  and  _543
REMARK  219  A    between atoms: _542  and  _545
REMARK  220  A    between atoms: _545  and  _546
REMARK  221  A    between atoms: _549  and  _551
REMARK  222  A    between atoms: _551  and  _552
REMARK  223  A    between atoms: _554  and  _556
REMARK  224  A    between atoms: _556  and  _557
REMARK  225  A    between atoms: _556  and  _559
REMARK  226  A    between atoms: _559  and  _560
REMARK  227  A    between atoms: _560  and  _561
REMARK  228  A    between atoms: _561  and  _562
REMARK                            x       y       z     vdW  Elec       q    Type
REMARK                         _______ _______ _______ _____ _____    ______ ____
ROOT
ATOM      1  O   HOH     1      15.274   6.303  12.213  0.00  0.00    +0.000 OA
ENDROOT
TORSDOF 0
REMARK  Name = ../refined-set-2016/1dif/1dif_pocket.pdb
REMARK  228 active torsions:
REMARK  status: ('A' for Active; 'I' for Inactive)
REMARK    1  A    between atoms: _1  and  _3
REMARK    2  A    between atoms: _3  and  _4
REMARK    3  A    between atoms: _3  and  _6
REMARK    4  A    between atoms: _6  and  _7
REMARK    5  A    between atoms: _7  and  _8
REMARK    6  A    between atoms: _8  and  _9
REMARK    7  A    between atoms: _19  and  _20
REMARK    8  A    between atoms: _25  and  _27
REMARK    9  A    between atoms: _27  and  _28
REMARK   10  A    between atoms: _27  and  _30
REMARK   11  A    between atoms: _30  and  _31
REMARK   12  A    between atoms: _34  and  _36
REMARK   13  A    between atoms: _36  and  _37
REMARK   14  A    between atoms: _36  and  _39
REMARK   15  A    between atoms: _39  and  _40
REMARK   16  A    between atoms: _43  and  _45
REMARK   17  A    between atoms: _45  and  _46
REMARK   18  A    between atoms: _45  and  _48
REMARK   19  A    between atoms: _48  and  _49
REMARK   20  A    between atoms: _52  and  _54
REMARK   21  A    between atoms: _54  and  _55
REMARK   22  A    between atoms: _54  and  _57
REMARK   23  A    between atoms: _57  and  _58
REMARK   24  A    between atoms: _61  and  _63
REMARK   25  A    between atoms: _63  and  _64
REMARK   26  A    between atoms: _63  and  _66
REMARK   27  A    between atoms: _66  and  _67
REMARK   28  A    between atoms: _70  and  _72
REMARK   29  A    between atoms: _72  and  _73
REMARK   30  A    between atoms: _75  and  _77
REMARK   31  A    between atoms: _77  and  _78
REMARK   32  A    between atoms: _81  and  _83
REMARK   33  A    between atoms: _83  and  _84
REMARK   34  A    between atoms: _83  and  _86
REMARK   35  A    between atoms: _86  and  _87
REMARK   36  A    between atoms: _90  and  _92
REMARK   37  A    between atoms: _92  and  _93
REMARK   38  A    between atoms: _92  and  _95
REMARK   39  A    between atoms: _95  and  _96
REMARK   40  A    between atoms: _99  and  _101
REMARK   41  A    between atoms: _101  and  _102
REMARK   42  A    between atoms: _101  and  _104
REMARK   43  A    between atoms: _104  and  _105
REMARK   44  A    between atoms: _108  and  _110
REMARK   45  A    between atoms: _110  and  _111
REMARK   46  A    between atoms: _110  and  _113
REMARK   47  A    between atoms: _116  and  _118
REMARK   48  A    between atoms: _118  and  _119
REMARK   49  A    between atoms: _118  and  _121
REMARK   50  A    between atoms: _121  and  _122
REMARK   51  A    between atoms: _122  and  _123
REMARK   52  A    between atoms: _123  and  _124
REMARK   53  A    between atoms: _124  and  _125
REMARK   54  A    between atoms: _129  and  _131
REMARK   55  A    between atoms: _131  and  _132
REMARK   56  A    between atoms: _131  and  _134
REMARK   57  A    between atoms: _134  and  _135
REMARK   58  A    between atoms: _135  and  _136
REMARK   59  A    between atoms: _138  and  _140
REMARK   60  A    between atoms: _140  and  _141
REMARK   61  A    between atoms: _140  and  _143
REMARK   62  A    between atoms: _143  and  _144
REMARK   63  A    between atoms: _147  and  _149
REMARK   64  A    between atoms: _149  and  _150
REMARK   65  A    between atoms: _152  and  _154
REMARK   66  A    between atoms: _154  and  _155
REMARK   67  A    between atoms: _157  and  _159
REMARK   68  A    between atoms: _159  and  _160
REMARK   69  A    between atoms: _159  and  _162
REMARK   70  A    between atoms: _162  and  _163
REMARK   71  A    between atoms: _166  and  _168
REMARK   72  A    between atoms: _168  and  _169
REMARK   73  A    between atoms: _171  and  _173
REMARK   74  A    between atoms: _173  and  _174
REMARK   75  A    between atoms: _176  and  _178
REMARK   76  A    between atoms: _178  and  _179
REMARK   77  A    between atoms: _178  and  _181
REMARK   78  A    between atoms: _181  and  _182
REMARK   79  A    between atoms: _188  and  _190
REMARK   80  A    between atoms: _190  and  _191
REMARK   81  A    between atoms: _190  and  _193
REMARK   82  A    between atoms: _193  and  _194
REMARK   83  A    between atoms: _197  and  _199
REMARK   84  A    between atoms: _199  and  _200
REMARK   85  A    between atoms: _199  and  _202
REMARK   86  A    between atoms: _205  and  _207
REMARK   87  A    between atoms: _207  and  _208
REMARK   88  A    between atoms: _207  and  _210
REMARK   89  A    between atoms: _210  and  _211
REMARK   90  A    between atoms: _215  and  _216
REMARK   91  A    between atoms: _221  and  _223
REMARK   92  A    between atoms: _223  and  _224
REMARK   93  A    between atoms: _223  and  _226
REMARK   94  A    between atoms: _226  and  _227
REMARK   95  A    between atoms: _231  and  _232
REMARK   96  A    between atoms: _237  and  _239
REMARK   97  A    between atoms: _239  and  _240
REMARK   98  A    between atoms: _239  and  _242
REMARK   99  A    between atoms: _245  and  _247
REMARK  100  A    between atoms: _247  and  _248
REMARK  101  A    between atoms: _247  and  _250
REMARK  102  A    between atoms: _250  and  _251
REMARK  103  A    between atoms: _256  and  _258
REMARK  104  A    between atoms: _258  and  _259
REMARK  105  A    between atoms: _258  and  _261
REMARK  106  A    between atoms: _261  and  _262
REMARK  107  A    between atoms: _265  and  _267
REMARK  108  A    between atoms: _267  and  _268
REMARK  109  A    between atoms: _267  and  _270
REMARK  110  A    between atoms: _270  and  _271
REMARK  111  A    between atoms: _274  and  _276
REMARK  112  A    between atoms: _276  and  _277
REMARK  113  A    between atoms: _279  and  _281
REMARK  114  A    between atoms: _281  and  _282
REMARK  115  A    between atoms: _281  and  _284
REMARK  116  A    between atoms: _284  and  _285
REMARK  117  A    between atoms: _285  and  _286
REMARK  118  A    between atoms: _286  and  _287
REMARK  119  A    between atoms: _296  and  _298
REMARK  120  A    between atoms: _298  and  _299
REMARK  121  A    between atoms: _298  and  _301
REMARK  122  A    between atoms: _301  and  _302
REMARK  123  A    between atoms: _302  and  _303
REMARK  124  A    between atoms: _303  and  _304
REMARK  125  A    between atoms: _314  and  _315
REMARK  126  A    between atoms: _320  and  _322
REMARK  127  A    between atoms: _322  and  _323
REMARK  128  A    between atoms: _322  and  _325
REMARK  129  A    between atoms: _325  and  _326
REMARK  130  A    between atoms: _329  and  _331
REMARK  131  A    between atoms: _331  and  _332
REMARK  132  A    between atoms: _331  and  _334
REMARK  133  A    between atoms: _334  and  _335
REMARK  134  A    between atoms: _338  and  _340
REMARK  135  A    between atoms: _340  and  _341
REMARK  136  A    between atoms: _340  and  _343
REMARK  137  A    between atoms: _343  and  _344
REMARK  138  A    between atoms: _347  and  _349
REMARK  139  A    between atoms: _349  and  _350
REMARK  140  A    between atoms: _349  and  _352
REMARK  141  A    between atoms: _352  and  _353
REMARK  142  A    between atoms: _356  and  _358
REMARK  143  A    between atoms: _358  and  _359
REMARK  144  A    between atoms: _358  and  _361
REMARK  145  A    between atoms: _361  and  _362
REMARK  146  A    between atoms: _365  and  _367
REMARK  147  A    between atoms: _367  and  _368
REMARK  148  A    between atoms: _370  and  _372
REMARK  149  A    between atoms: _372  and  _373
REMARK  150  A    between atoms: _376  and  _378
REMARK  151  A    between atoms: _378  and  _379
REMARK  152  A    between atoms: _378  and  _381
REMARK  153  A    between atoms: _381  and  _382
REMARK  154  A    between atoms: _385  and  _387
REMARK  155  A    between atoms: _387  and  _388
REMARK  156  A    between atoms: _387  and  _390
REMARK  157  A    between atoms: _390  and  _391
REMARK  158  A    between atoms: _394  and  _396
REMARK  159  A    between atoms: _396  and  _397
REMARK  160  A    between atoms: _396  and  _399
REMARK  161  A    between atoms: _399  and  _400
REMARK  162  A    between atoms: _403  and  _405
REMARK  163  A    between atoms: _405  and  _406
REMARK  164  A    between atoms: _405  and  _408
REMARK  165  A    between atoms: _411  and  _413
REMARK  166  A    between atoms: _413  and  _414
REMARK  167  A    between atoms: _413  and  _416
REMARK  168  A    between atoms: _416  and  _417
REMARK  169  A    between atoms: _417  and  _418
REMARK  170  A    between atoms: _420  and  _422
REMARK  171  A    between atoms: _422  and  _423
REMARK  172  A    between atoms: _422  and  _425
REMARK  173  A    between atoms: _425  and  _426
REMARK  174  A    between atoms: _429  and  _431
REMARK  175  A    between atoms: _431  and  _432
REMARK  176  A    between atoms: _434  and  _436
REMARK  177  A    between atoms: _436  and  _437
REMARK  178  A    between atoms: _439  and  _441
REMARK  179  A    between atoms: _441  and  _442
REMARK  180  A    between atoms: _441  and  _444
REMARK  181  A    between atoms: _444  and  _445
REMARK  182  A    between atoms: _448  and  _450
REMARK  183  A    between atoms: _450  and  _451
REMARK  184  A    between atoms: _453  and  _455
REMARK  185  A    between atoms: _455  and  _456
REMARK  186  A    between atoms: _458  and  _460
REMARK  187  A    between atoms: _460  and  _461
REMARK  188  A    between atoms: _460  and  _463
REMARK  189  A    between atoms: _463  and  _464
REMARK  190  A    between atoms: _470  and  _472
REMARK  191  A    between atoms: _472  and  _473
REMARK  192  A    between atoms: _472  and  _475
REMARK  193  A    between atoms: _475  and  _476
REMARK  194  A    between atoms: _479  and  _481
REMARK  195  A    between atoms: _481  and  _482
REMARK  196  A    between atoms: _481  and  _484
REMARK  197  A    between atoms: _487  and  _489
REMARK  198  A    between atoms: _489  and  _490
REMARK  199  A    between atoms: _489  and  _492
REMARK  200  A    between atoms: _492  and  _493
REMARK  201  A    between atoms: _496  and  _498
REMARK  202  A    between atoms: _498  and  _499
REMARK  203  A    between atoms: _498  and  _501
REMARK  204  A    between atoms: _501  and  _502
REMARK  205  A    between atoms: _506  and  _507
REMARK  206  A    between atoms: _512  and  _514
REMARK  207  A    between atoms: _514  and  _515
REMARK  208  A    between atoms: _514  and  _517
REMARK  209  A    between atoms: _520  and  _522
REMARK  210  A    between atoms: _522  and  _523
REMARK  211  A    between atoms: _522  and  _525
REMARK  212  A    between atoms: _525  and  _526
REMARK  213  A    between atoms: _531  and  _533
REMARK  214  A    between atoms: _533  and  _534
REMARK  215  A    between atoms: _533  and  _536
REMARK  216  A    between atoms: _536  and  _537
REMARK  217  A    between atoms: _540  and  _542
REMARK  218  A    between atoms: _542  and  _543
REMARK  219  A    between atoms: _542  and  _545
REMARK  220  A    between atoms: _545  and  _546
REMARK  221  A    between atoms: _549  and  _551
REMARK  222  A    between atoms: _551  and  _552
REMARK  223  A    between atoms: _554  and  _556
REMARK  224  A    between atoms: _556  and  _557
REMARK  225  A    between atoms: _556  and  _559
REMARK  226  A    between atoms: _559  and  _560
REMARK  227  A    between atoms: _560  and  _561
REMARK  228  A    between atoms: _561  and  _562
REMARK                            x       y       z     vdW  Elec       q    Type
REMARK                         _______ _______ _______ _____ _____    ______ ____
ROOT
ATOM      1  O   HOH     1       9.543  -9.438  18.154  0.00  0.00    +0.000 OA
ENDROOT
TORSDOF 0
REMARK  Name = ../refined-set-2016/1dif/1dif_pocket.pdb
REMARK  228 active torsions:
REMARK  status: ('A' for Active; 'I' for Inactive)
REMARK    1  A    between atoms: _1  and  _3
REMARK    2  A    between atoms: _3  and  _4
REMARK    3  A    between atoms: _3  and  _6
REMARK    4  A    between atoms: _6  and  _7
REMARK    5  A    between atoms: _7  and  _8
REMARK    6  A    between atoms: _8  and  _9
REMARK    7  A    between atoms: _19  and  _20
REMARK    8  A    between atoms: _25  and  _27
REMARK    9  A    between atoms: _27  and  _28
REMARK   10  A    between atoms: _27  and  _30
REMARK   11  A    between atoms: _30  and  _31
REMARK   12  A    between atoms: _34  and  _36
REMARK   13  A    between atoms: _36  and  _37
REMARK   14  A    between atoms: _36  and  _39
REMARK   15  A    between atoms: _39  and  _40
REMARK   16  A    between atoms: _43  and  _45
REMARK   17  A    between atoms: _45  and  _46
REMARK   18  A    between atoms: _45  and  _48
REMARK   19  A    between atoms: _48  and  _49
REMARK   20  A    between atoms: _52  and  _54
REMARK   21  A    between atoms: _54  and  _55
REMARK   22  A    between atoms: _54  and  _57
REMARK   23  A    between atoms: _57  and  _58
REMARK   24  A    between atoms: _61  and  _63
REMARK   25  A    between atoms: _63  and  _64
REMARK   26  A    between atoms: _63  and  _66
REMARK   27  A    between atoms: _66  and  _67
REMARK   28  A    between atoms: _70  and  _72
REMARK   29  A    between atoms: _72  and  _73
REMARK   30  A    between atoms: _75  and  _77
REMARK   31  A    between atoms: _77  and  _78
REMARK   32  A    between atoms: _81  and  _83
REMARK   33  A    between atoms: _83  and  _84
REMARK   34  A    between atoms: _83  and  _86
REMARK   35  A    between atoms: _86  and  _87
REMARK   36  A    between atoms: _90  and  _92
REMARK   37  A    between atoms: _92  and  _93
REMARK   38  A    between atoms: _92  and  _95
REMARK   39  A    between atoms: _95  and  _96
REMARK   40  A    between atoms: _99  and  _101
REMARK   41  A    between atoms: _101  and  _102
REMARK   42  A    between atoms: _101  and  _104
REMARK   43  A    between atoms: _104  and  _105
REMARK   44  A    between atoms: _108  and  _110
REMARK   45  A    between atoms: _110  and  _111
REMARK   46  A    between atoms: _110  and  _113
REMARK   47  A    between atoms: _116  and  _118
REMARK   48  A    between atoms: _118  and  _119
REMARK   49  A    between atoms: _118  and  _121
REMARK   50  A    between atoms: _121  and  _122
REMARK   51  A    between atoms: _122  and  _123
REMARK   52  A    between atoms: _123  and  _124
REMARK   53  A    between atoms: _124  and  _125
REMARK   54  A    between atoms: _129  and  _131
REMARK   55  A    between atoms: _131  and  _132
REMARK   56  A    between atoms: _131  and  _134
REMARK   57  A    between atoms: _134  and  _135
REMARK   58  A    between atoms: _135  and  _136
REMARK   59  A    between atoms: _138  and  _140
REMARK   60  A    between atoms: _140  and  _141
REMARK   61  A    between atoms: _140  and  _143
REMARK   62  A    between atoms: _143  and  _144
REMARK   63  A    between atoms: _147  and  _149
REMARK   64  A    between atoms: _149  and  _150
REMARK   65  A    between atoms: _152  and  _154
REMARK   66  A    between atoms: _154  and  _155
REMARK   67  A    between atoms: _157  and  _159
REMARK   68  A    between atoms: _159  and  _160
REMARK   69  A    between atoms: _159  and  _162
REMARK   70  A    between atoms: _162  and  _163
REMARK   71  A    between atoms: _166  and  _168
REMARK   72  A    between atoms: _168  and  _169
REMARK   73  A    between atoms: _171  and  _173
REMARK   74  A    between atoms: _173  and  _174
REMARK   75  A    between atoms: _176  and  _178
REMARK   76  A    between atoms: _178  and  _179
REMARK   77  A    between atoms: _178  and  _181
REMARK   78  A    between atoms: _181  and  _182
REMARK   79  A    between atoms: _188  and  _190
REMARK   80  A    between atoms: _190  and  _191
REMARK   81  A    between atoms: _190  and  _193
REMARK   82  A    between atoms: _193  and  _194
REMARK   83  A    between atoms: _197  and  _199
REMARK   84  A    between atoms: _199  and  _200
REMARK   85  A    between atoms: _199  and  _202
REMARK   86  A    between atoms: _205  and  _207
REMARK   87  A    between atoms: _207  and  _208
REMARK   88  A    between atoms: _207  and  _210
REMARK   89  A    between atoms: _210  and  _211
REMARK   90  A    between atoms: _215  and  _216
REMARK   91  A    between atoms: _221  and  _223
REMARK   92  A    between atoms: _223  and  _224
REMARK   93  A    between atoms: _223  and  _226
REMARK   94  A    between atoms: _226  and  _227
REMARK   95  A    between atoms: _231  and  _232
REMARK   96  A    between atoms: _237  and  _239
REMARK   97  A    between atoms: _239  and  _240
REMARK   98  A    between atoms: _239  and  _242
REMARK   99  A    between atoms: _245  and  _247
REMARK  100  A    between atoms: _247  and  _248
REMARK  101  A    between atoms: _247  and  _250
REMARK  102  A    between atoms: _250  and  _251
REMARK  103  A    between atoms: _256  and  _258
REMARK  104  A    between atoms: _258  and  _259
REMARK  105  A    between atoms: _258  and  _261
REMARK  106  A    between atoms: _261  and  _262
REMARK  107  A    between atoms: _265  and  _267
REMARK  108  A    between atoms: _267  and  _268
REMARK  109  A    between atoms: _267  and  _270
REMARK  110  A    between atoms: _270  and  _271
REMARK  111  A    between atoms: _274  and  _276
REMARK  112  A    between atoms: _276  and  _277
REMARK  113  A    between atoms: _279  and  _281
REMARK  114  A    between atoms: _281  and  _282
REMARK  115  A    between atoms: _281  and  _284
REMARK  116  A    between atoms: _284  and  _285
REMARK  117  A    between atoms: _285  and  _286
REMARK  118  A    between atoms: _286  and  _287
REMARK  119  A    between atoms: _296  and  _298
REMARK  120  A    between atoms: _298  and  _299
REMARK  121  A    between atoms: _298  and  _301
REMARK  122  A    between atoms: _301  and  _302
REMARK  123  A    between atoms: _302  and  _303
REMARK  124  A    between atoms: _303  and  _304
REMARK  125  A    between atoms: _314  and  _315
REMARK  126  A    between atoms: _320  and  _322
REMARK  127  A    between atoms: _322  and  _323
REMARK  128  A    between atoms: _322  and  _325
REMARK  129  A    between atoms: _325  and  _326
REMARK  130  A    between atoms: _329  and  _331
REMARK  131  A    between atoms: _331  and  _332
REMARK  132  A    between atoms: _331  and  _334
REMARK  133  A    between atoms: _334  and  _335
REMARK  134  A    between atoms: _338  and  _340
REMARK  135  A    between atoms: _340  and  _341
REMARK  136  A    between atoms: _340  and  _343
REMARK  137  A    between atoms: _343  and  _344
REMARK  138  A    between atoms: _347  and  _349
REMARK  139  A    between atoms: _349  and  _350
REMARK  140  A    between atoms: _349  and  _352
REMARK  141  A    between atoms: _352  and  _353
REMARK  142  A    between atoms: _356  and  _358
REMARK  143  A    between atoms: _358  and  _359
REMARK  144  A    between atoms: _358  and  _361
REMARK  145  A    between atoms: _361  and  _362
REMARK  146  A    between atoms: _365  and  _367
REMARK  147  A    between atoms: _367  and  _368
REMARK  148  A    between atoms: _370  and  _372
REMARK  149  A    between atoms: _372  and  _373
REMARK  150  A    between atoms: _376  and  _378
REMARK  151  A    between atoms: _378  and  _379
REMARK  152  A    between atoms: _378  and  _381
REMARK  153  A    between atoms: _381  and  _382
REMARK  154  A    between atoms: _385  and  _387
REMARK  155  A    between atoms: _387  and  _388
REMARK  156  A    between atoms: _387  and  _390
REMARK  157  A    between atoms: _390  and  _391
REMARK  158  A    between atoms: _394  and  _396
REMARK  159  A    between atoms: _396  and  _397
REMARK  160  A    between atoms: _396  and  _399
REMARK  161  A    between atoms: _399  and  _400
REMARK  162  A    between atoms: _403  and  _405
REMARK  163  A    between atoms: _405  and  _406
REMARK  164  A    between atoms: _405  and  _408
REMARK  165  A    between atoms: _411  and  _413
REMARK  166  A    between atoms: _413  and  _414
REMARK  167  A    between atoms: _413  and  _416
REMARK  168  A    between atoms: _416  and  _417
REMARK  169  A    between atoms: _417  and  _418
REMARK  170  A    between atoms: _420  and  _422
REMARK  171  A    between atoms: _422  and  _423
REMARK  172  A    between atoms: _422  and  _425
REMARK  173  A    between atoms: _425  and  _426
REMARK  174  A    between atoms: _429  and  _431
REMARK  175  A    between atoms: _431  and  _432
REMARK  176  A    between atoms: _434  and  _436
REMARK  177  A    between atoms: _436  and  _437
REMARK  178  A    between atoms: _439  and  _441
REMARK  179  A    between atoms: _441  and  _442
REMARK  180  A    between atoms: _441  and  _444
REMARK  181  A    between atoms: _444  and  _445
REMARK  182  A    between atoms: _448  and  _450
REMARK  183  A    between atoms: _450  and  _451
REMARK  184  A    between atoms: _453  and  _455
REMARK  185  A    between atoms: _455  and  _456
REMARK  186  A    between atoms: _458  and  _460
REMARK  187  A    between atoms: _460  and  _461
REMARK  188  A    between atoms: _460  and  _463
REMARK  189  A    between atoms: _463  and  _464
REMARK  190  A    between atoms: _470  and  _472
REMARK  191  A    between atoms: _472  and  _473
REMARK  192  A    between atoms: _472  and  _475
REMARK  193  A    between atoms: _475  and  _476
REMARK  194  A    between atoms: _479  and  _481
REMARK  195  A    between atoms: _481  and  _482
REMARK  196  A    between atoms: _481  and  _484
REMARK  197  A    between atoms: _487  and  _489
REMARK  198  A    between atoms: _489  and  _490
REMARK  199  A    between atoms: _489  and  _492
REMARK  200  A    between atoms: _492  and  _493
REMARK  201  A    between atoms: _496  and  _498
REMARK  202  A    between atoms: _498  and  _499
REMARK  203  A    between atoms: _498  and  _501
REMARK  204  A    between atoms: _501  and  _502
REMARK  205  A    between atoms: _506  and  _507
REMARK  206  A    between atoms: _512  and  _514
REMARK  207  A    between atoms: _514  and  _515
REMARK  208  A    between atoms: _514  and  _517
REMARK  209  A    between atoms: _520  and  _522
REMARK  210  A    between atoms: _522  and  _523
REMARK  211  A    between atoms: _522  and  _525
REMARK  212  A    between atoms: _525  and  _526
REMARK  213  A    between atoms: _531  and  _533
REMARK  214  A    between atoms: _533  and  _534
REMARK  215  A    between atoms: _533  and  _536
REMARK  216  A    between atoms: _536  and  _537
REMARK  217  A    between atoms: _540  and  _542
REMARK  218  A    between atoms: _542  and  _543
REMARK  219  A    between atoms: _542  and  _545
REMARK  220  A    between atoms: _545  and  _546
REMARK  221  A    between atoms: _549  and  _551
REMARK  222  A    between atoms: _551  and  _552
REMARK  223  A    between atoms: _554  and  _556
REMARK  224  A    between atoms: _556  and  _557
REMARK  225  A    between atoms: _556  and  _559
REMARK  226  A    between atoms: _559  and  _560
REMARK  227  A    between atoms: _560  and  _561
REMARK  228  A    between atoms: _561  and  _562
REMARK                            x       y       z     vdW  Elec       q    Type
REMARK                         _______ _______ _______ _____ _____    ______ ____
ROOT
ATOM      1  O   HOH     1       9.172  12.219  10.585  0.00  0.00    +0.000 OA
ENDROOT
TORSDOF 0
REMARK  Name = ../refined-set-2016/1dif/1dif_pocket.pdb
REMARK  228 active torsions:
REMARK  status: ('A' for Active; 'I' for Inactive)
REMARK    1  A    between atoms: _1  and  _3
REMARK    2  A    between atoms: _3  and  _4
REMARK    3  A    between atoms: _3  and  _6
REMARK    4  A    between atoms: _6  and  _7
REMARK    5  A    between atoms: _7  and  _8
REMARK    6  A    between atoms: _8  and  _9
REMARK    7  A    between atoms: _19  and  _20
REMARK    8  A    between atoms: _25  and  _27
REMARK    9  A    between atoms: _27  and  _28
REMARK   10  A    between atoms: _27  and  _30
REMARK   11  A    between atoms: _30  and  _31
REMARK   12  A    between atoms: _34  and  _36
REMARK   13  A    between atoms: _36  and  _37
REMARK   14  A    between atoms: _36  and  _39
REMARK   15  A    between atoms: _39  and  _40
REMARK   16  A    between atoms: _43  and  _45
REMARK   17  A    between atoms: _45  and  _46
REMARK   18  A    between atoms: _45  and  _48
REMARK   19  A    between atoms: _48  and  _49
REMARK   20  A    between atoms: _52  and  _54
REMARK   21  A    between atoms: _54  and  _55
REMARK   22  A    between atoms: _54  and  _57
REMARK   23  A    between atoms: _57  and  _58
REMARK   24  A    between atoms: _61  and  _63
REMARK   25  A    between atoms: _63  and  _64
REMARK   26  A    between atoms: _63  and  _66
REMARK   27  A    between atoms: _66  and  _67
REMARK   28  A    between atoms: _70  and  _72
REMARK   29  A    between atoms: _72  and  _73
REMARK   30  A    between atoms: _75  and  _77
REMARK   31  A    between atoms: _77  and  _78
REMARK   32  A    between atoms: _81  and  _83
REMARK   33  A    between atoms: _83  and  _84
REMARK   34  A    between atoms: _83  and  _86
REMARK   35  A    between atoms: _86  and  _87
REMARK   36  A    between atoms: _90  and  _92
REMARK   37  A    between atoms: _92  and  _93
REMARK   38  A    between atoms: _92  and  _95
REMARK   39  A    between atoms: _95  and  _96
REMARK   40  A    between atoms: _99  and  _101
REMARK   41  A    between atoms: _101  and  _102
REMARK   42  A    between atoms: _101  and  _104
REMARK   43  A    between atoms: _104  and  _105
REMARK   44  A    between atoms: _108  and  _110
REMARK   45  A    between atoms: _110  and  _111
REMARK   46  A    between atoms: _110  and  _113
REMARK   47  A    between atoms: _116  and  _118
REMARK   48  A    between atoms: _118  and  _119
REMARK   49  A    between atoms: _118  and  _121
REMARK   50  A    between atoms: _121  and  _122
REMARK   51  A    between atoms: _122  and  _123
REMARK   52  A    between atoms: _123  and  _124
REMARK   53  A    between atoms: _124  and  _125
REMARK   54  A    between atoms: _129  and  _131
REMARK   55  A    between atoms: _131  and  _132
REMARK   56  A    between atoms: _131  and  _134
REMARK   57  A    between atoms: _134  and  _135
REMARK   58  A    between atoms: _135  and  _136
REMARK   59  A    between atoms: _138  and  _140
REMARK   60  A    between atoms: _140  and  _141
REMARK   61  A    between atoms: _140  and  _143
REMARK   62  A    between atoms: _143  and  _144
REMARK   63  A    between atoms: _147  and  _149
REMARK   64  A    between atoms: _149  and  _150
REMARK   65  A    between atoms: _152  and  _154
REMARK   66  A    between atoms: _154  and  _155
REMARK   67  A    between atoms: _157  and  _159
REMARK   68  A    between atoms: _159  and  _160
REMARK   69  A    between atoms: _159  and  _162
REMARK   70  A    between atoms: _162  and  _163
REMARK   71  A    between atoms: _166  and  _168
REMARK   72  A    between atoms: _168  and  _169
REMARK   73  A    between atoms: _171  and  _173
REMARK   74  A    between atoms: _173  and  _174
REMARK   75  A    between atoms: _176  and  _178
REMARK   76  A    between atoms: _178  and  _179
REMARK   77  A    between atoms: _178  and  _181
REMARK   78  A    between atoms: _181  and  _182
REMARK   79  A    between atoms: _188  and  _190
REMARK   80  A    between atoms: _190  and  _191
REMARK   81  A    between atoms: _190  and  _193
REMARK   82  A    between atoms: _193  and  _194
REMARK   83  A    between atoms: _197  and  _199
REMARK   84  A    between atoms: _199  and  _200
REMARK   85  A    between atoms: _199  and  _202
REMARK   86  A    between atoms: _205  and  _207
REMARK   87  A    between atoms: _207  and  _208
REMARK   88  A    between atoms: _207  and  _210
REMARK   89  A    between atoms: _210  and  _211
REMARK   90  A    between atoms: _215  and  _216
REMARK   91  A    between atoms: _221  and  _223
REMARK   92  A    between atoms: _223  and  _224
REMARK   93  A    between atoms: _223  and  _226
REMARK   94  A    between atoms: _226  and  _227
REMARK   95  A    between atoms: _231  and  _232
REMARK   96  A    between atoms: _237  and  _239
REMARK   97  A    between atoms: _239  and  _240
REMARK   98  A    between atoms: _239  and  _242
REMARK   99  A    between atoms: _245  and  _247
REMARK  100  A    between atoms: _247  and  _248
REMARK  101  A    between atoms: _247  and  _250
REMARK  102  A    between atoms: _250  and  _251
REMARK  103  A    between atoms: _256  and  _258
REMARK  104  A    between atoms: _258  and  _259
REMARK  105  A    between atoms: _258  and  _261
REMARK  106  A    between atoms: _261  and  _262
REMARK  107  A    between atoms: _265  and  _267
REMARK  108  A    between atoms: _267  and  _268
REMARK  109  A    between atoms: _267  and  _270
REMARK  110  A    between atoms: _270  and  _271
REMARK  111  A    between atoms: _274  and  _276
REMARK  112  A    between atoms: _276  and  _277
REMARK  113  A    between atoms: _279  and  _281
REMARK  114  A    between atoms: _281  and  _282
REMARK  115  A    between atoms: _281  and  _284
REMARK  116  A    between atoms: _284  and  _285
REMARK  117  A    between atoms: _285  and  _286
REMARK  118  A    between atoms: _286  and  _287
REMARK  119  A    between atoms: _296  and  _298
REMARK  120  A    between atoms: _298  and  _299
REMARK  121  A    between atoms: _298  and  _301
REMARK  122  A    between atoms: _301  and  _302
REMARK  123  A    between atoms: _302  and  _303
REMARK  124  A    between atoms: _303  and  _304
REMARK  125  A    between atoms: _314  and  _315
REMARK  126  A    between atoms: _320  and  _322
REMARK  127  A    between atoms: _322  and  _323
REMARK  128  A    between atoms: _322  and  _325
REMARK  129  A    between atoms: _325  and  _326
REMARK  130  A    between atoms: _329  and  _331
REMARK  131  A    between atoms: _331  and  _332
REMARK  132  A    between atoms: _331  and  _334
REMARK  133  A    between atoms: _334  and  _335
REMARK  134  A    between atoms: _338  and  _340
REMARK  135  A    between atoms: _340  and  _341
REMARK  136  A    between atoms: _340  and  _343
REMARK  137  A    between atoms: _343  and  _344
REMARK  138  A    between atoms: _347  and  _349
REMARK  139  A    between atoms: _349  and  _350
REMARK  140  A    between atoms: _349  and  _352
REMARK  141  A    between atoms: _352  and  _353
REMARK  142  A    between atoms: _356  and  _358
REMARK  143  A    between atoms: _358  and  _359
REMARK  144  A    between atoms: _358  and  _361
REMARK  145  A    between atoms: _361  and  _362
REMARK  146  A    between atoms: _365  and  _367
REMARK  147  A    between atoms: _367  and  _368
REMARK  148  A    between atoms: _370  and  _372
REMARK  149  A    between atoms: _372  and  _373
REMARK  150  A    between atoms: _376  and  _378
REMARK  151  A    between atoms: _378  and  _379
REMARK  152  A    between atoms: _378  and  _381
REMARK  153  A    between atoms: _381  and  _382
REMARK  154  A    between atoms: _385  and  _387
REMARK  155  A    between atoms: _387  and  _388
REMARK  156  A    between atoms: _387  and  _390
REMARK  157  A    between atoms: _390  and  _391
REMARK  158  A    between atoms: _394  and  _396
REMARK  159  A    between atoms: _396  and  _397
REMARK  160  A    between atoms: _396  and  _399
REMARK  161  A    between atoms: _399  and  _400
REMARK  162  A    between atoms: _403  and  _405
REMARK  163  A    between atoms: _405  and  _406
REMARK  164  A    between atoms: _405  and  _408
REMARK  165  A    between atoms: _411  and  _413
REMARK  166  A    between atoms: _413  and  _414
REMARK  167  A    between atoms: _413  and  _416
REMARK  168  A    between atoms: _416  and  _417
REMARK  169  A    between atoms: _417  and  _418
REMARK  170  A    between atoms: _420  and  _422
REMARK  171  A    between atoms: _422  and  _423
REMARK  172  A    between atoms: _422  and  _425
REMARK  173  A    between atoms: _425  and  _426
REMARK  174  A    between atoms: _429  and  _431
REMARK  175  A    between atoms: _431  and  _432
REMARK  176  A    between atoms: _434  and  _436
REMARK  177  A    between atoms: _436  and  _437
REMARK  178  A    between atoms: _439  and  _441
REMARK  179  A    between atoms: _441  and  _442
REMARK  180  A    between atoms: _441  and  _444
REMARK  181  A    between atoms: _444  and  _445
REMARK  182  A    between atoms: _448  and  _450
REMARK  183  A    between atoms: _450  and  _451
REMARK  184  A    between atoms: _453  and  _455
REMARK  185  A    between atoms: _455  and  _456
REMARK  186  A    between atoms: _458  and  _460
REMARK  187  A    between atoms: _460  and  _461
REMARK  188  A    between atoms: _460  and  _463
REMARK  189  A    between atoms: _463  and  _464
REMARK  190  A    between atoms: _470  and  _472
REMARK  191  A    between atoms: _472  and  _473
REMARK  192  A    between atoms: _472  and  _475
REMARK  193  A    between atoms: _475  and  _476
REMARK  194  A    between atoms: _479  and  _481
REMARK  195  A    between atoms: _481  and  _482
REMARK  196  A    between atoms: _481  and  _484
REMARK  197  A    between atoms: _487  and  _489
REMARK  198  A    between atoms: _489  and  _490
REMARK  199  A    between atoms: _489  and  _492
REMARK  200  A    between atoms: _492  and  _493
REMARK  201  A    between atoms: _496  and  _498
REMARK  202  A    between atoms: _498  and  _499
REMARK  203  A    between atoms: _498  and  _501
REMARK  204  A    between atoms: _501  and  _502
REMARK  205  A    between atoms: _506  and  _507
REMARK  206  A    between atoms: _512  and  _514
REMARK  207  A    between atoms: _514  and  _515
REMARK  208  A    between atoms: _514  and  _517
REMARK  209  A    between atoms: _520  and  _522
REMARK  210  A    between atoms: _522  and  _523
REMARK  211  A    between atoms: _522  and  _525
REMARK  212  A    between atoms: _525  and  _526
REMARK  213  A    between atoms: _531  and  _533
REMARK  214  A    between atoms: _533  and  _534
REMARK  215  A    between atoms: _533  and  _536
REMARK  216  A    between atoms: _536  and  _537
REMARK  217  A    between atoms: _540  and  _542
REMARK  218  A    between atoms: _542  and  _543
REMARK  219  A    between atoms: _542  and  _545
REMARK  220  A    between atoms: _545  and  _546
REMARK  221  A    between atoms: _549  and  _551
REMARK  222  A    between atoms: _551  and  _552
REMARK  223  A    between atoms: _554  and  _556
REMARK  224  A    between atoms: _556  and  _557
REMARK  225  A    between atoms: _556  and  _559
REMARK  226  A    between atoms: _559  and  _560
REMARK  227  A    between atoms: _560  and  _561
REMARK  228  A    between atoms: _561  and  _562
REMARK                            x       y       z     vdW  Elec       q    Type
REMARK                         _______ _______ _______ _____ _____    ______ ____
ROOT
ATOM      1  O   HOH     1      11.763 -10.556  22.197  0.00  0.00    +0.000 OA
ENDROOT
TORSDOF 0
REMARK  Name = ../refined-set-2016/1dif/1dif_pocket.pdb
REMARK  228 active torsions:
REMARK  status: ('A' for Active; 'I' for Inactive)
REMARK    1  A    between atoms: _1  and  _3
REMARK    2  A    between atoms: _3  and  _4
REMARK    3  A    between atoms: _3  and  _6
REMARK    4  A    between atoms: _6  and  _7
REMARK    5  A    between atoms: _7  and  _8
REMARK    6  A    between atoms: _8  and  _9
REMARK    7  A    between atoms: _19  and  _20
REMARK    8  A    between atoms: _25  and  _27
REMARK    9  A    between atoms: _27  and  _28
REMARK   10  A    between atoms: _27  and  _30
REMARK   11  A    between atoms: _30  and  _31
REMARK   12  A    between atoms: _34  and  _36
REMARK   13  A    between atoms: _36  and  _37
REMARK   14  A    between atoms: _36  and  _39
REMARK   15  A    between atoms: _39  and  _40
REMARK   16  A    between atoms: _43  and  _45
REMARK   17  A    between atoms: _45  and  _46
REMARK   18  A    between atoms: _45  and  _48
REMARK   19  A    between atoms: _48  and  _49
REMARK   20  A    between atoms: _52  and  _54
REMARK   21  A    between atoms: _54  and  _55
REMARK   22  A    between atoms: _54  and  _57
REMARK   23  A    between atoms: _57  and  _58
REMARK   24  A    between atoms: _61  and  _63
REMARK   25  A    between atoms: _63  and  _64
REMARK   26  A    between atoms: _63  and  _66
REMARK   27  A    between atoms: _66  and  _67
REMARK   28  A    between atoms: _70  and  _72
REMARK   29  A    between atoms: _72  and  _73
REMARK   30  A    between atoms: _75  and  _77
REMARK   31  A    between atoms: _77  and  _78
REMARK   32  A    between atoms: _81  and  _83
REMARK   33  A    between atoms: _83  and  _84
REMARK   34  A    between atoms: _83  and  _86
REMARK   35  A    between atoms: _86  and  _87
REMARK   36  A    between atoms: _90  and  _92
REMARK   37  A    between atoms: _92  and  _93
REMARK   38  A    between atoms: _92  and  _95
REMARK   39  A    between atoms: _95  and  _96
REMARK   40  A    between atoms: _99  and  _101
REMARK   41  A    between atoms: _101  and  _102
REMARK   42  A    between atoms: _101  and  _104
REMARK   43  A    between atoms: _104  and  _105
REMARK   44  A    between atoms: _108  and  _110
REMARK   45  A    between atoms: _110  and  _111
REMARK   46  A    between atoms: _110  and  _113
REMARK   47  A    between atoms: _116  and  _118
REMARK   48  A    between atoms: _118  and  _119
REMARK   49  A    between atoms: _118  and  _121
REMARK   50  A    between atoms: _121  and  _122
REMARK   51  A    between atoms: _122  and  _123
REMARK   52  A    between atoms: _123  and  _124
REMARK   53  A    between atoms: _124  and  _125
REMARK   54  A    between atoms: _129  and  _131
REMARK   55  A    between atoms: _131  and  _132
REMARK   56  A    between atoms: _131  and  _134
REMARK   57  A    between atoms: _134  and  _135
REMARK   58  A    between atoms: _135  and  _136
REMARK   59  A    between atoms: _138  and  _140
REMARK   60  A    between atoms: _140  and  _141
REMARK   61  A    between atoms: _140  and  _143
REMARK   62  A    between atoms: _143  and  _144
REMARK   63  A    between atoms: _147  and  _149
REMARK   64  A    between atoms: _149  and  _150
REMARK   65  A    between atoms: _152  and  _154
REMARK   66  A    between atoms: _154  and  _155
REMARK   67  A    between atoms: _157  and  _159
REMARK   68  A    between atoms: _159  and  _160
REMARK   69  A    between atoms: _159  and  _162
REMARK   70  A    between atoms: _162  and  _163
REMARK   71  A    between atoms: _166  and  _168
REMARK   72  A    between atoms: _168  and  _169
REMARK   73  A    between atoms: _171  and  _173
REMARK   74  A    between atoms: _173  and  _174
REMARK   75  A    between atoms: _176  and  _178
REMARK   76  A    between atoms: _178  and  _179
REMARK   77  A    between atoms: _178  and  _181
REMARK   78  A    between atoms: _181  and  _182
REMARK   79  A    between atoms: _188  and  _190
REMARK   80  A    between atoms: _190  and  _191
REMARK   81  A    between atoms: _190  and  _193
REMARK   82  A    between atoms: _193  and  _194
REMARK   83  A    between atoms: _197  and  _199
REMARK   84  A    between atoms: _199  and  _200
REMARK   85  A    between atoms: _199  and  _202
REMARK   86  A    between atoms: _205  and  _207
REMARK   87  A    between atoms: _207  and  _208
REMARK   88  A    between atoms: _207  and  _210
REMARK   89  A    between atoms: _210  and  _211
REMARK   90  A    between atoms: _215  and  _216
REMARK   91  A    between atoms: _221  and  _223
REMARK   92  A    between atoms: _223  and  _224
REMARK   93  A    between atoms: _223  and  _226
REMARK   94  A    between atoms: _226  and  _227
REMARK   95  A    between atoms: _231  and  _232
REMARK   96  A    between atoms: _237  and  _239
REMARK   97  A    between atoms: _239  and  _240
REMARK   98  A    between atoms: _239  and  _242
REMARK   99  A    between atoms: _245  and  _247
REMARK  100  A    between atoms: _247  and  _248
REMARK  101  A    between atoms: _247  and  _250
REMARK  102  A    between atoms: _250  and  _251
REMARK  103  A    between atoms: _256  and  _258
REMARK  104  A    between atoms: _258  and  _259
REMARK  105  A    between atoms: _258  and  _261
REMARK  106  A    between atoms: _261  and  _262
REMARK  107  A    between atoms: _265  and  _267
REMARK  108  A    between atoms: _267  and  _268
REMARK  109  A    between atoms: _267  and  _270
REMARK  110  A    between atoms: _270  and  _271
REMARK  111  A    between atoms: _274  and  _276
REMARK  112  A    between atoms: _276  and  _277
REMARK  113  A    between atoms: _279  and  _281
REMARK  114  A    between atoms: _281  and  _282
REMARK  115  A    between atoms: _281  and  _284
REMARK  116  A    between atoms: _284  and  _285
REMARK  117  A    between atoms: _285  and  _286
REMARK  118  A    between atoms: _286  and  _287
REMARK  119  A    between atoms: _296  and  _298
REMARK  120  A    between atoms: _298  and  _299
REMARK  121  A    between atoms: _298  and  _301
REMARK  122  A    between atoms: _301  and  _302
REMARK  123  A    between atoms: _302  and  _303
REMARK  124  A    between atoms: _303  and  _304
REMARK  125  A    between atoms: _314  and  _315
REMARK  126  A    between atoms: _320  and  _322
REMARK  127  A    between atoms: _322  and  _323
REMARK  128  A    between atoms: _322  and  _325
REMARK  129  A    between atoms: _325  and  _326
REMARK  130  A    between atoms: _329  and  _331
REMARK  131  A    between atoms: _331  and  _332
REMARK  132  A    between atoms: _331  and  _334
REMARK  133  A    between atoms: _334  and  _335
REMARK  134  A    between atoms: _338  and  _340
REMARK  135  A    between atoms: _340  and  _341
REMARK  136  A    between atoms: _340  and  _343
REMARK  137  A    between atoms: _343  and  _344
REMARK  138  A    between atoms: _347  and  _349
REMARK  139  A    between atoms: _349  and  _350
REMARK  140  A    between atoms: _349  and  _352
REMARK  141  A    between atoms: _352  and  _353
REMARK  142  A    between atoms: _356  and  _358
REMARK  143  A    between atoms: _358  and  _359
REMARK  144  A    between atoms: _358  and  _361
REMARK  145  A    between atoms: _361  and  _362
REMARK  146  A    between atoms: _365  and  _367
REMARK  147  A    between atoms: _367  and  _368
REMARK  148  A    between atoms: _370  and  _372
REMARK  149  A    between atoms: _372  and  _373
REMARK  150  A    between atoms: _376  and  _378
REMARK  151  A    between atoms: _378  and  _379
REMARK  152  A    between atoms: _378  and  _381
REMARK  153  A    between atoms: _381  and  _382
REMARK  154  A    between atoms: _385  and  _387
REMARK  155  A    between atoms: _387  and  _388
REMARK  156  A    between atoms: _387  and  _390
REMARK  157  A    between atoms: _390  and  _391
REMARK  158  A    between atoms: _394  and  _396
REMARK  159  A    between atoms: _396  and  _397
REMARK  160  A    between atoms: _396  and  _399
REMARK  161  A    between atoms: _399  and  _400
REMARK  162  A    between atoms: _403  and  _405
REMARK  163  A    between atoms: _405  and  _406
REMARK  164  A    between atoms: _405  and  _408
REMARK  165  A    between atoms: _411  and  _413
REMARK  166  A    between atoms: _413  and  _414
REMARK  167  A    between atoms: _413  and  _416
REMARK  168  A    between atoms: _416  and  _417
REMARK  169  A    between atoms: _417  and  _418
REMARK  170  A    between atoms: _420  and  _422
REMARK  171  A    between atoms: _422  and  _423
REMARK  172  A    between atoms: _422  and  _425
REMARK  173  A    between atoms: _425  and  _426
REMARK  174  A    between atoms: _429  and  _431
REMARK  175  A    between atoms: _431  and  _432
REMARK  176  A    between atoms: _434  and  _436
REMARK  177  A    between atoms: _436  and  _437
REMARK  178  A    between atoms: _439  and  _441
REMARK  179  A    between atoms: _441  and  _442
REMARK  180  A    between atoms: _441  and  _444
REMARK  181  A    between atoms: _444  and  _445
REMARK  182  A    between atoms: _448  and  _450
REMARK  183  A    between atoms: _450  and  _451
REMARK  184  A    between atoms: _453  and  _455
REMARK  185  A    between atoms: _455  and  _456
REMARK  186  A    between atoms: _458  and  _460
REMARK  187  A    between atoms: _460  and  _461
REMARK  188  A    between atoms: _460  and  _463
REMARK  189  A    between atoms: _463  and  _464
REMARK  190  A    between atoms: _470  and  _472
REMARK  191  A    between atoms: _472  and  _473
REMARK  192  A    between atoms: _472  and  _475
REMARK  193  A    between atoms: _475  and  _476
REMARK  194  A    between atoms: _479  and  _481
REMARK  195  A    between atoms: _481  and  _482
REMARK  196  A    between atoms: _481  and  _484
REMARK  197  A    between atoms: _487  and  _489
REMARK  198  A    between atoms: _489  and  _490
REMARK  199  A    between atoms: _489  and  _492
REMARK  200  A    between atoms: _492  and  _493
REMARK  201  A    between atoms: _496  and  _498
REMARK  202  A    between atoms: _498  and  _499
REMARK  203  A    between atoms: _498  and  _501
REMARK  204  A    between atoms: _501  and  _502
REMARK  205  A    between atoms: _506  and  _507
REMARK  206  A    between atoms: _512  and  _514
REMARK  207  A    between atoms: _514  and  _515
REMARK  208  A    between atoms: _514  and  _517
REMARK  209  A    between atoms: _520  and  _522
REMARK  210  A    between atoms: _522  and  _523
REMARK  211  A    between atoms: _522  and  _525
REMARK  212  A    between atoms: _525  and  _526
REMARK  213  A    between atoms: _531  and  _533
REMARK  214  A    between atoms: _533  and  _534
REMARK  215  A    between atoms: _533  and  _536
REMARK  216  A    between atoms: _536  and  _537
REMARK  217  A    between atoms: _540  and  _542
REMARK  218  A    between atoms: _542  and  _543
REMARK  219  A    between atoms: _542  and  _545
REMARK  220  A    between atoms: _545  and  _546
REMARK  221  A    between atoms: _549  and  _551
REMARK  222  A    between atoms: _551  and  _552
REMARK  223  A    between atoms: _554  and  _556
REMARK  224  A    between atoms: _556  and  _557
REMARK  225  A    between atoms: _556  and  _559
REMARK  226  A    between atoms: _559  and  _560
REMARK  227  A    between atoms: _560  and  _561
REMARK  228  A    between atoms: _561  and  _562
REMARK                            x       y       z     vdW  Elec       q    Type
REMARK                         _______ _______ _______ _____ _____    ______ ____
ROOT
ATOM      1  O   HOH     1      10.692  -6.343  25.895  0.00  0.00    +0.000 OA
ENDROOT
TORSDOF 0
REMARK  Name = ../refined-set-2016/1dif/1dif_pocket.pdb
REMARK  228 active torsions:
REMARK  status: ('A' for Active; 'I' for Inactive)
REMARK    1  A    between atoms: _1  and  _3
REMARK    2  A    between atoms: _3  and  _4
REMARK    3  A    between atoms: _3  and  _6
REMARK    4  A    between atoms: _6  and  _7
REMARK    5  A    between atoms: _7  and  _8
REMARK    6  A    between atoms: _8  and  _9
REMARK    7  A    between atoms: _19  and  _20
REMARK    8  A    between atoms: _25  and  _27
REMARK    9  A    between atoms: _27  and  _28
REMARK   10  A    between atoms: _27  and  _30
REMARK   11  A    between atoms: _30  and  _31
REMARK   12  A    between atoms: _34  and  _36
REMARK   13  A    between atoms: _36  and  _37
REMARK   14  A    between atoms: _36  and  _39
REMARK   15  A    between atoms: _39  and  _40
REMARK   16  A    between atoms: _43  and  _45
REMARK   17  A    between atoms: _45  and  _46
REMARK   18  A    between atoms: _45  and  _48
REMARK   19  A    between atoms: _48  and  _49
REMARK   20  A    between atoms: _52  and  _54
REMARK   21  A    between atoms: _54  and  _55
REMARK   22  A    between atoms: _54  and  _57
REMARK   23  A    between atoms: _57  and  _58
REMARK   24  A    between atoms: _61  and  _63
REMARK   25  A    between atoms: _63  and  _64
REMARK   26  A    between atoms: _63  and  _66
REMARK   27  A    between atoms: _66  and  _67
REMARK   28  A    between atoms: _70  and  _72
REMARK   29  A    between atoms: _72  and  _73
REMARK   30  A    between atoms: _75  and  _77
REMARK   31  A    between atoms: _77  and  _78
REMARK   32  A    between atoms: _81  and  _83
REMARK   33  A    between atoms: _83  and  _84
REMARK   34  A    between atoms: _83  and  _86
REMARK   35  A    between atoms: _86  and  _87
REMARK   36  A    between atoms: _90  and  _92
REMARK   37  A    between atoms: _92  and  _93
REMARK   38  A    between atoms: _92  and  _95
REMARK   39  A    between atoms: _95  and  _96
REMARK   40  A    between atoms: _99  and  _101
REMARK   41  A    between atoms: _101  and  _102
REMARK   42  A    between atoms: _101  and  _104
REMARK   43  A    between atoms: _104  and  _105
REMARK   44  A    between atoms: _108  and  _110
REMARK   45  A    between atoms: _110  and  _111
REMARK   46  A    between atoms: _110  and  _113
REMARK   47  A    between atoms: _116  and  _118
REMARK   48  A    between atoms: _118  and  _119
REMARK   49  A    between atoms: _118  and  _121
REMARK   50  A    between atoms: _121  and  _122
REMARK   51  A    between atoms: _122  and  _123
REMARK   52  A    between atoms: _123  and  _124
REMARK   53  A    between atoms: _124  and  _125
REMARK   54  A    between atoms: _129  and  _131
REMARK   55  A    between atoms: _131  and  _132
REMARK   56  A    between atoms: _131  and  _134
REMARK   57  A    between atoms: _134  and  _135
REMARK   58  A    between atoms: _135  and  _136
REMARK   59  A    between atoms: _138  and  _140
REMARK   60  A    between atoms: _140  and  _141
REMARK   61  A    between atoms: _140  and  _143
REMARK   62  A    between atoms: _143  and  _144
REMARK   63  A    between atoms: _147  and  _149
REMARK   64  A    between atoms: _149  and  _150
REMARK   65  A    between atoms: _152  and  _154
REMARK   66  A    between atoms: _154  and  _155
REMARK   67  A    between atoms: _157  and  _159
REMARK   68  A    between atoms: _159  and  _160
REMARK   69  A    between atoms: _159  and  _162
REMARK   70  A    between atoms: _162  and  _163
REMARK   71  A    between atoms: _166  and  _168
REMARK   72  A    between atoms: _168  and  _169
REMARK   73  A    between atoms: _171  and  _173
REMARK   74  A    between atoms: _173  and  _174
REMARK   75  A    between atoms: _176  and  _178
REMARK   76  A    between atoms: _178  and  _179
REMARK   77  A    between atoms: _178  and  _181
REMARK   78  A    between atoms: _181  and  _182
REMARK   79  A    between atoms: _188  and  _190
REMARK   80  A    between atoms: _190  and  _191
REMARK   81  A    between atoms: _190  and  _193
REMARK   82  A    between atoms: _193  and  _194
REMARK   83  A    between atoms: _197  and  _199
REMARK   84  A    between atoms: _199  and  _200
REMARK   85  A    between atoms: _199  and  _202
REMARK   86  A    between atoms: _205  and  _207
REMARK   87  A    between atoms: _207  and  _208
REMARK   88  A    between atoms: _207  and  _210
REMARK   89  A    between atoms: _210  and  _211
REMARK   90  A    between atoms: _215  and  _216
REMARK   91  A    between atoms: _221  and  _223
REMARK   92  A    between atoms: _223  and  _224
REMARK   93  A    between atoms: _223  and  _226
REMARK   94  A    between atoms: _226  and  _227
REMARK   95  A    between atoms: _231  and  _232
REMARK   96  A    between atoms: _237  and  _239
REMARK   97  A    between atoms: _239  and  _240
REMARK   98  A    between atoms: _239  and  _242
REMARK   99  A    between atoms: _245  and  _247
REMARK  100  A    between atoms: _247  and  _248
REMARK  101  A    between atoms: _247  and  _250
REMARK  102  A    between atoms: _250  and  _251
REMARK  103  A    between atoms: _256  and  _258
REMARK  104  A    between atoms: _258  and  _259
REMARK  105  A    between atoms: _258  and  _261
REMARK  106  A    between atoms: _261  and  _262
REMARK  107  A    between atoms: _265  and  _267
REMARK  108  A    between atoms: _267  and  _268
REMARK  109  A    between atoms: _267  and  _270
REMARK  110  A    between atoms: _270  and  _271
REMARK  111  A    between atoms: _274  and  _276
REMARK  112  A    between atoms: _276  and  _277
REMARK  113  A    between atoms: _279  and  _281
REMARK  114  A    between atoms: _281  and  _282
REMARK  115  A    between atoms: _281  and  _284
REMARK  116  A    between atoms: _284  and  _285
REMARK  117  A    between atoms: _285  and  _286
REMARK  118  A    between atoms: _286  and  _287
REMARK  119  A    between atoms: _296  and  _298
REMARK  120  A    between atoms: _298  and  _299
REMARK  121  A    between atoms: _298  and  _301
REMARK  122  A    between atoms: _301  and  _302
REMARK  123  A    between atoms: _302  and  _303
REMARK  124  A    between atoms: _303  and  _304
REMARK  125  A    between atoms: _314  and  _315
REMARK  126  A    between atoms: _320  and  _322
REMARK  127  A    between atoms: _322  and  _323
REMARK  128  A    between atoms: _322  and  _325
REMARK  129  A    between atoms: _325  and  _326
REMARK  130  A    between atoms: _329  and  _331
REMARK  131  A    between atoms: _331  and  _332
REMARK  132  A    between atoms: _331  and  _334
REMARK  133  A    between atoms: _334  and  _335
REMARK  134  A    between atoms: _338  and  _340
REMARK  135  A    between atoms: _340  and  _341
REMARK  136  A    between atoms: _340  and  _343
REMARK  137  A    between atoms: _343  and  _344
REMARK  138  A    between atoms: _347  and  _349
REMARK  139  A    between atoms: _349  and  _350
REMARK  140  A    between atoms: _349  and  _352
REMARK  141  A    between atoms: _352  and  _353
REMARK  142  A    between atoms: _356  and  _358
REMARK  143  A    between atoms: _358  and  _359
REMARK  144  A    between atoms: _358  and  _361
REMARK  145  A    between atoms: _361  and  _362
REMARK  146  A    between atoms: _365  and  _367
REMARK  147  A    between atoms: _367  and  _368
REMARK  148  A    between atoms: _370  and  _372
REMARK  149  A    between atoms: _372  and  _373
REMARK  150  A    between atoms: _376  and  _378
REMARK  151  A    between atoms: _378  and  _379
REMARK  152  A    between atoms: _378  and  _381
REMARK  153  A    between atoms: _381  and  _382
REMARK  154  A    between atoms: _385  and  _387
REMARK  155  A    between atoms: _387  and  _388
REMARK  156  A    between atoms: _387  and  _390
REMARK  157  A    between atoms: _390  and  _391
REMARK  158  A    between atoms: _394  and  _396
REMARK  159  A    between atoms: _396  and  _397
REMARK  160  A    between atoms: _396  and  _399
REMARK  161  A    between atoms: _399  and  _400
REMARK  162  A    between atoms: _403  and  _405
REMARK  163  A    between atoms: _405  and  _406
REMARK  164  A    between atoms: _405  and  _408
REMARK  165  A    between atoms: _411  and  _413
REMARK  166  A    between atoms: _413  and  _414
REMARK  167  A    between atoms: _413  and  _416
REMARK  168  A    between atoms: _416  and  _417
REMARK  169  A    between atoms: _417  and  _418
REMARK  170  A    between atoms: _420  and  _422
REMARK  171  A    between atoms: _422  and  _423
REMARK  172  A    between atoms: _422  and  _425
REMARK  173  A    between atoms: _425  and  _426
REMARK  174  A    between atoms: _429  and  _431
REMARK  175  A    between atoms: _431  and  _432
REMARK  176  A    between atoms: _434  and  _436
REMARK  177  A    between atoms: _436  and  _437
REMARK  178  A    between atoms: _439  and  _441
REMARK  179  A    between atoms: _441  and  _442
REMARK  180  A    between atoms: _441  and  _444
REMARK  181  A    between atoms: _444  and  _445
REMARK  182  A    between atoms: _448  and  _450
REMARK  183  A    between atoms: _450  and  _451
REMARK  184  A    between atoms: _453  and  _455
REMARK  185  A    between atoms: _455  and  _456
REMARK  186  A    between atoms: _458  and  _460
REMARK  187  A    between atoms: _460  and  _461
REMARK  188  A    between atoms: _460  and  _463
REMARK  189  A    between atoms: _463  and  _464
REMARK  190  A    between atoms: _470  and  _472
REMARK  191  A    between atoms: _472  and  _473
REMARK  192  A    between atoms: _472  and  _475
REMARK  193  A    between atoms: _475  and  _476
REMARK  194  A    between atoms: _479  and  _481
REMARK  195  A    between atoms: _481  and  _482
REMARK  196  A    between atoms: _481  and  _484
REMARK  197  A    between atoms: _487  and  _489
REMARK  198  A    between atoms: _489  and  _490
REMARK  199  A    between atoms: _489  and  _492
REMARK  200  A    between atoms: _492  and  _493
REMARK  201  A    between atoms: _496  and  _498
REMARK  202  A    between atoms: _498  and  _499
REMARK  203  A    between atoms: _498  and  _501
REMARK  204  A    between atoms: _501  and  _502
REMARK  205  A    between atoms: _506  and  _507
REMARK  206  A    between atoms: _512  and  _514
REMARK  207  A    between atoms: _514  and  _515
REMARK  208  A    between atoms: _514  and  _517
REMARK  209  A    between atoms: _520  and  _522
REMARK  210  A    between atoms: _522  and  _523
REMARK  211  A    between atoms: _522  and  _525
REMARK  212  A    between atoms: _525  and  _526
REMARK  213  A    between atoms: _531  and  _533
REMARK  214  A    between atoms: _533  and  _534
REMARK  215  A    between atoms: _533  and  _536
REMARK  216  A    between atoms: _536  and  _537
REMARK  217  A    between atoms: _540  and  _542
REMARK  218  A    between atoms: _542  and  _543
REMARK  219  A    between atoms: _542  and  _545
REMARK  220  A    between atoms: _545  and  _546
REMARK  221  A    between atoms: _549  and  _551
REMARK  222  A    between atoms: _551  and  _552
REMARK  223  A    between atoms: _554  and  _556
REMARK  224  A    between atoms: _556  and  _557
REMARK  225  A    between atoms: _556  and  _559
REMARK  226  A    between atoms: _559  and  _560
REMARK  227  A    between atoms: _560  and  _561
REMARK  228  A    between atoms: _561  and  _562
REMARK                            x       y       z     vdW  Elec       q    Type
REMARK                         _______ _______ _______ _____ _____    ______ ____
ROOT
ATOM      1  O   HOH     1       3.571   7.628   6.042  0.00  0.00    +0.000 OA
ENDROOT
TORSDOF 0
REMARK  Name = ../refined-set-2016/1dif/1dif_pocket.pdb
REMARK  228 active torsions:
REMARK  status: ('A' for Active; 'I' for Inactive)
REMARK    1  A    between atoms: _1  and  _3
REMARK    2  A    between atoms: _3  and  _4
REMARK    3  A    between atoms: _3  and  _6
REMARK    4  A    between atoms: _6  and  _7
REMARK    5  A    between atoms: _7  and  _8
REMARK    6  A    between atoms: _8  and  _9
REMARK    7  A    between atoms: _19  and  _20
REMARK    8  A    between atoms: _25  and  _27
REMARK    9  A    between atoms: _27  and  _28
REMARK   10  A    between atoms: _27  and  _30
REMARK   11  A    between atoms: _30  and  _31
REMARK   12  A    between atoms: _34  and  _36
REMARK   13  A    between atoms: _36  and  _37
REMARK   14  A    between atoms: _36  and  _39
REMARK   15  A    between atoms: _39  and  _40
REMARK   16  A    between atoms: _43  and  _45
REMARK   17  A    between atoms: _45  and  _46
REMARK   18  A    between atoms: _45  and  _48
REMARK   19  A    between atoms: _48  and  _49
REMARK   20  A    between atoms: _52  and  _54
REMARK   21  A    between atoms: _54  and  _55
REMARK   22  A    between atoms: _54  and  _57
REMARK   23  A    between atoms: _57  and  _58
REMARK   24  A    between atoms: _61  and  _63
REMARK   25  A    between atoms: _63  and  _64
REMARK   26  A    between atoms: _63  and  _66
REMARK   27  A    between atoms: _66  and  _67
REMARK   28  A    between atoms: _70  and  _72
REMARK   29  A    between atoms: _72  and  _73
REMARK   30  A    between atoms: _75  and  _77
REMARK   31  A    between atoms: _77  and  _78
REMARK   32  A    between atoms: _81  and  _83
REMARK   33  A    between atoms: _83  and  _84
REMARK   34  A    between atoms: _83  and  _86
REMARK   35  A    between atoms: _86  and  _87
REMARK   36  A    between atoms: _90  and  _92
REMARK   37  A    between atoms: _92  and  _93
REMARK   38  A    between atoms: _92  and  _95
REMARK   39  A    between atoms: _95  and  _96
REMARK   40  A    between atoms: _99  and  _101
REMARK   41  A    between atoms: _101  and  _102
REMARK   42  A    between atoms: _101  and  _104
REMARK   43  A    between atoms: _104  and  _105
REMARK   44  A    between atoms: _108  and  _110
REMARK   45  A    between atoms: _110  and  _111
REMARK   46  A    between atoms: _110  and  _113
REMARK   47  A    between atoms: _116  and  _118
REMARK   48  A    between atoms: _118  and  _119
REMARK   49  A    between atoms: _118  and  _121
REMARK   50  A    between atoms: _121  and  _122
REMARK   51  A    between atoms: _122  and  _123
REMARK   52  A    between atoms: _123  and  _124
REMARK   53  A    between atoms: _124  and  _125
REMARK   54  A    between atoms: _129  and  _131
REMARK   55  A    between atoms: _131  and  _132
REMARK   56  A    between atoms: _131  and  _134
REMARK   57  A    between atoms: _134  and  _135
REMARK   58  A    between atoms: _135  and  _136
REMARK   59  A    between atoms: _138  and  _140
REMARK   60  A    between atoms: _140  and  _141
REMARK   61  A    between atoms: _140  and  _143
REMARK   62  A    between atoms: _143  and  _144
REMARK   63  A    between atoms: _147  and  _149
REMARK   64  A    between atoms: _149  and  _150
REMARK   65  A    between atoms: _152  and  _154
REMARK   66  A    between atoms: _154  and  _155
REMARK   67  A    between atoms: _157  and  _159
REMARK   68  A    between atoms: _159  and  _160
REMARK   69  A    between atoms: _159  and  _162
REMARK   70  A    between atoms: _162  and  _163
REMARK   71  A    between atoms: _166  and  _168
REMARK   72  A    between atoms: _168  and  _169
REMARK   73  A    between atoms: _171  and  _173
REMARK   74  A    between atoms: _173  and  _174
REMARK   75  A    between atoms: _176  and  _178
REMARK   76  A    between atoms: _178  and  _179
REMARK   77  A    between atoms: _178  and  _181
REMARK   78  A    between atoms: _181  and  _182
REMARK   79  A    between atoms: _188  and  _190
REMARK   80  A    between atoms: _190  and  _191
REMARK   81  A    between atoms: _190  and  _193
REMARK   82  A    between atoms: _193  and  _194
REMARK   83  A    between atoms: _197  and  _199
REMARK   84  A    between atoms: _199  and  _200
REMARK   85  A    between atoms: _199  and  _202
REMARK   86  A    between atoms: _205  and  _207
REMARK   87  A    between atoms: _207  and  _208
REMARK   88  A    between atoms: _207  and  _210
REMARK   89  A    between atoms: _210  and  _211
REMARK   90  A    between atoms: _215  and  _216
REMARK   91  A    between atoms: _221  and  _223
REMARK   92  A    between atoms: _223  and  _224
REMARK   93  A    between atoms: _223  and  _226
REMARK   94  A    between atoms: _226  and  _227
REMARK   95  A    between atoms: _231  and  _232
REMARK   96  A    between atoms: _237  and  _239
REMARK   97  A    between atoms: _239  and  _240
REMARK   98  A    between atoms: _239  and  _242
REMARK   99  A    between atoms: _245  and  _247
REMARK  100  A    between atoms: _247  and  _248
REMARK  101  A    between atoms: _247  and  _250
REMARK  102  A    between atoms: _250  and  _251
REMARK  103  A    between atoms: _256  and  _258
REMARK  104  A    between atoms: _258  and  _259
REMARK  105  A    between atoms: _258  and  _261
REMARK  106  A    between atoms: _261  and  _262
REMARK  107  A    between atoms: _265  and  _267
REMARK  108  A    between atoms: _267  and  _268
REMARK  109  A    between atoms: _267  and  _270
REMARK  110  A    between atoms: _270  and  _271
REMARK  111  A    between atoms: _274  and  _276
REMARK  112  A    between atoms: _276  and  _277
REMARK  113  A    between atoms: _279  and  _281
REMARK  114  A    between atoms: _281  and  _282
REMARK  115  A    between atoms: _281  and  _284
REMARK  116  A    between atoms: _284  and  _285
REMARK  117  A    between atoms: _285  and  _286
REMARK  118  A    between atoms: _286  and  _287
REMARK  119  A    between atoms: _296  and  _298
REMARK  120  A    between atoms: _298  and  _299
REMARK  121  A    between atoms: _298  and  _301
REMARK  122  A    between atoms: _301  and  _302
REMARK  123  A    between atoms: _302  and  _303
REMARK  124  A    between atoms: _303  and  _304
REMARK  125  A    between atoms: _314  and  _315
REMARK  126  A    between atoms: _320  and  _322
REMARK  127  A    between atoms: _322  and  _323
REMARK  128  A    between atoms: _322  and  _325
REMARK  129  A    between atoms: _325  and  _326
REMARK  130  A    between atoms: _329  and  _331
REMARK  131  A    between atoms: _331  and  _332
REMARK  132  A    between atoms: _331  and  _334
REMARK  133  A    between atoms: _334  and  _335
REMARK  134  A    between atoms: _338  and  _340
REMARK  135  A    between atoms: _340  and  _341
REMARK  136  A    between atoms: _340  and  _343
REMARK  137  A    between atoms: _343  and  _344
REMARK  138  A    between atoms: _347  and  _349
REMARK  139  A    between atoms: _349  and  _350
REMARK  140  A    between atoms: _349  and  _352
REMARK  141  A    between atoms: _352  and  _353
REMARK  142  A    between atoms: _356  and  _358
REMARK  143  A    between atoms: _358  and  _359
REMARK  144  A    between atoms: _358  and  _361
REMARK  145  A    between atoms: _361  and  _362
REMARK  146  A    between atoms: _365  and  _367
REMARK  147  A    between atoms: _367  and  _368
REMARK  148  A    between atoms: _370  and  _372
REMARK  149  A    between atoms: _372  and  _373
REMARK  150  A    between atoms: _376  and  _378
REMARK  151  A    between atoms: _378  and  _379
REMARK  152  A    between atoms: _378  and  _381
REMARK  153  A    between atoms: _381  and  _382
REMARK  154  A    between atoms: _385  and  _387
REMARK  155  A    between atoms: _387  and  _388
REMARK  156  A    between atoms: _387  and  _390
REMARK  157  A    between atoms: _390  and  _391
REMARK  158  A    between atoms: _394  and  _396
REMARK  159  A    between atoms: _396  and  _397
REMARK  160  A    between atoms: _396  and  _399
REMARK  161  A    between atoms: _399  and  _400
REMARK  162  A    between atoms: _403  and  _405
REMARK  163  A    between atoms: _405  and  _406
REMARK  164  A    between atoms: _405  and  _408
REMARK  165  A    between atoms: _411  and  _413
REMARK  166  A    between atoms: _413  and  _414
REMARK  167  A    between atoms: _413  and  _416
REMARK  168  A    between atoms: _416  and  _417
REMARK  169  A    between atoms: _417  and  _418
REMARK  170  A    between atoms: _420  and  _422
REMARK  171  A    between atoms: _422  and  _423
REMARK  172  A    between atoms: _422  and  _425
REMARK  173  A    between atoms: _425  and  _426
REMARK  174  A    between atoms: _429  and  _431
REMARK  175  A    between atoms: _431  and  _432
REMARK  176  A    between atoms: _434  and  _436
REMARK  177  A    between atoms: _436  and  _437
REMARK  178  A    between atoms: _439  and  _441
REMARK  179  A    between atoms: _441  and  _442
REMARK  180  A    between atoms: _441  and  _444
REMARK  181  A    between atoms: _444  and  _445
REMARK  182  A    between atoms: _448  and  _450
REMARK  183  A    between atoms: _450  and  _451
REMARK  184  A    between atoms: _453  and  _455
REMARK  185  A    between atoms: _455  and  _456
REMARK  186  A    between atoms: _458  and  _460
REMARK  187  A    between atoms: _460  and  _461
REMARK  188  A    between atoms: _460  and  _463
REMARK  189  A    between atoms: _463  and  _464
REMARK  190  A    between atoms: _470  and  _472
REMARK  191  A    between atoms: _472  and  _473
REMARK  192  A    between atoms: _472  and  _475
REMARK  193  A    between atoms: _475  and  _476
REMARK  194  A    between atoms: _479  and  _481
REMARK  195  A    between atoms: _481  and  _482
REMARK  196  A    between atoms: _481  and  _484
REMARK  197  A    between atoms: _487  and  _489
REMARK  198  A    between atoms: _489  and  _490
REMARK  199  A    between atoms: _489  and  _492
REMARK  200  A    between atoms: _492  and  _493
REMARK  201  A    between atoms: _496  and  _498
REMARK  202  A    between atoms: _498  and  _499
REMARK  203  A    between atoms: _498  and  _501
REMARK  204  A    between atoms: _501  and  _502
REMARK  205  A    between atoms: _506  and  _507
REMARK  206  A    between atoms: _512  and  _514
REMARK  207  A    between atoms: _514  and  _515
REMARK  208  A    between atoms: _514  and  _517
REMARK  209  A    between atoms: _520  and  _522
REMARK  210  A    between atoms: _522  and  _523
REMARK  211  A    between atoms: _522  and  _525
REMARK  212  A    between atoms: _525  and  _526
REMARK  213  A    between atoms: _531  and  _533
REMARK  214  A    between atoms: _533  and  _534
REMARK  215  A    between atoms: _533  and  _536
REMARK  216  A    between atoms: _536  and  _537
REMARK  217  A    between atoms: _540  and  _542
REMARK  218  A    between atoms: _542  and  _543
REMARK  219  A    between atoms: _542  and  _545
REMARK  220  A    between atoms: _545  and  _546
REMARK  221  A    between atoms: _549  and  _551
REMARK  222  A    between atoms: _551  and  _552
REMARK  223  A    between atoms: _554  and  _556
REMARK  224  A    between atoms: _556  and  _557
REMARK  225  A    between atoms: _556  and  _559
REMARK  226  A    between atoms: _559  and  _560
REMARK  227  A    between atoms: _560  and  _561
REMARK  228  A    between atoms: _561  and  _562
REMARK                            x       y       z     vdW  Elec       q    Type
REMARK                         _______ _______ _______ _____ _____    ______ ____
ROOT
ATOM      1  O   HOH     1       3.845 -10.176  14.349  0.00  0.00    +0.000 OA
ENDROOT
TORSDOF 0
REMARK  Name = ../refined-set-2016/1dif/1dif_pocket.pdb
REMARK  228 active torsions:
REMARK  status: ('A' for Active; 'I' for Inactive)
REMARK    1  A    between atoms: _1  and  _3
REMARK    2  A    between atoms: _3  and  _4
REMARK    3  A    between atoms: _3  and  _6
REMARK    4  A    between atoms: _6  and  _7
REMARK    5  A    between atoms: _7  and  _8
REMARK    6  A    between atoms: _8  and  _9
REMARK    7  A    between atoms: _19  and  _20
REMARK    8  A    between atoms: _25  and  _27
REMARK    9  A    between atoms: _27  and  _28
REMARK   10  A    between atoms: _27  and  _30
REMARK   11  A    between atoms: _30  and  _31
REMARK   12  A    between atoms: _34  and  _36
REMARK   13  A    between atoms: _36  and  _37
REMARK   14  A    between atoms: _36  and  _39
REMARK   15  A    between atoms: _39  and  _40
REMARK   16  A    between atoms: _43  and  _45
REMARK   17  A    between atoms: _45  and  _46
REMARK   18  A    between atoms: _45  and  _48
REMARK   19  A    between atoms: _48  and  _49
REMARK   20  A    between atoms: _52  and  _54
REMARK   21  A    between atoms: _54  and  _55
REMARK   22  A    between atoms: _54  and  _57
REMARK   23  A    between atoms: _57  and  _58
REMARK   24  A    between atoms: _61  and  _63
REMARK   25  A    between atoms: _63  and  _64
REMARK   26  A    between atoms: _63  and  _66
REMARK   27  A    between atoms: _66  and  _67
REMARK   28  A    between atoms: _70  and  _72
REMARK   29  A    between atoms: _72  and  _73
REMARK   30  A    between atoms: _75  and  _77
REMARK   31  A    between atoms: _77  and  _78
REMARK   32  A    between atoms: _81  and  _83
REMARK   33  A    between atoms: _83  and  _84
REMARK   34  A    between atoms: _83  and  _86
REMARK   35  A    between atoms: _86  and  _87
REMARK   36  A    between atoms: _90  and  _92
REMARK   37  A    between atoms: _92  and  _93
REMARK   38  A    between atoms: _92  and  _95
REMARK   39  A    between atoms: _95  and  _96
REMARK   40  A    between atoms: _99  and  _101
REMARK   41  A    between atoms: _101  and  _102
REMARK   42  A    between atoms: _101  and  _104
REMARK   43  A    between atoms: _104  and  _105
REMARK   44  A    between atoms: _108  and  _110
REMARK   45  A    between atoms: _110  and  _111
REMARK   46  A    between atoms: _110  and  _113
REMARK   47  A    between atoms: _116  and  _118
REMARK   48  A    between atoms: _118  and  _119
REMARK   49  A    between atoms: _118  and  _121
REMARK   50  A    between atoms: _121  and  _122
REMARK   51  A    between atoms: _122  and  _123
REMARK   52  A    between atoms: _123  and  _124
REMARK   53  A    between atoms: _124  and  _125
REMARK   54  A    between atoms: _129  and  _131
REMARK   55  A    between atoms: _131  and  _132
REMARK   56  A    between atoms: _131  and  _134
REMARK   57  A    between atoms: _134  and  _135
REMARK   58  A    between atoms: _135  and  _136
REMARK   59  A    between atoms: _138  and  _140
REMARK   60  A    between atoms: _140  and  _141
REMARK   61  A    between atoms: _140  and  _143
REMARK   62  A    between atoms: _143  and  _144
REMARK   63  A    between atoms: _147  and  _149
REMARK   64  A    between atoms: _149  and  _150
REMARK   65  A    between atoms: _152  and  _154
REMARK   66  A    between atoms: _154  and  _155
REMARK   67  A    between atoms: _157  and  _159
REMARK   68  A    between atoms: _159  and  _160
REMARK   69  A    between atoms: _159  and  _162
REMARK   70  A    between atoms: _162  and  _163
REMARK   71  A    between atoms: _166  and  _168
REMARK   72  A    between atoms: _168  and  _169
REMARK   73  A    between atoms: _171  and  _173
REMARK   74  A    between atoms: _173  and  _174
REMARK   75  A    between atoms: _176  and  _178
REMARK   76  A    between atoms: _178  and  _179
REMARK   77  A    between atoms: _178  and  _181
REMARK   78  A    between atoms: _181  and  _182
REMARK   79  A    between atoms: _188  and  _190
REMARK   80  A    between atoms: _190  and  _191
REMARK   81  A    between atoms: _190  and  _193
REMARK   82  A    between atoms: _193  and  _194
REMARK   83  A    between atoms: _197  and  _199
REMARK   84  A    between atoms: _199  and  _200
REMARK   85  A    between atoms: _199  and  _202
REMARK   86  A    between atoms: _205  and  _207
REMARK   87  A    between atoms: _207  and  _208
REMARK   88  A    between atoms: _207  and  _210
REMARK   89  A    between atoms: _210  and  _211
REMARK   90  A    between atoms: _215  and  _216
REMARK   91  A    between atoms: _221  and  _223
REMARK   92  A    between atoms: _223  and  _224
REMARK   93  A    between atoms: _223  and  _226
REMARK   94  A    between atoms: _226  and  _227
REMARK   95  A    between atoms: _231  and  _232
REMARK   96  A    between atoms: _237  and  _239
REMARK   97  A    between atoms: _239  and  _240
REMARK   98  A    between atoms: _239  and  _242
REMARK   99  A    between atoms: _245  and  _247
REMARK  100  A    between atoms: _247  and  _248
REMARK  101  A    between atoms: _247  and  _250
REMARK  102  A    between atoms: _250  and  _251
REMARK  103  A    between atoms: _256  and  _258
REMARK  104  A    between atoms: _258  and  _259
REMARK  105  A    between atoms: _258  and  _261
REMARK  106  A    between atoms: _261  and  _262
REMARK  107  A    between atoms: _265  and  _267
REMARK  108  A    between atoms: _267  and  _268
REMARK  109  A    between atoms: _267  and  _270
REMARK  110  A    between atoms: _270  and  _271
REMARK  111  A    between atoms: _274  and  _276
REMARK  112  A    between atoms: _276  and  _277
REMARK  113  A    between atoms: _279  and  _281
REMARK  114  A    between atoms: _281  and  _282
REMARK  115  A    between atoms: _281  and  _284
REMARK  116  A    between atoms: _284  and  _285
REMARK  117  A    between atoms: _285  and  _286
REMARK  118  A    between atoms: _286  and  _287
REMARK  119  A    between atoms: _296  and  _298
REMARK  120  A    between atoms: _298  and  _299
REMARK  121  A    between atoms: _298  and  _301
REMARK  122  A    between atoms: _301  and  _302
REMARK  123  A    between atoms: _302  and  _303
REMARK  124  A    between atoms: _303  and  _304
REMARK  125  A    between atoms: _314  and  _315
REMARK  126  A    between atoms: _320  and  _322
REMARK  127  A    between atoms: _322  and  _323
REMARK  128  A    between atoms: _322  and  _325
REMARK  129  A    between atoms: _325  and  _326
REMARK  130  A    between atoms: _329  and  _331
REMARK  131  A    between atoms: _331  and  _332
REMARK  132  A    between atoms: _331  and  _334
REMARK  133  A    between atoms: _334  and  _335
REMARK  134  A    between atoms: _338  and  _340
REMARK  135  A    between atoms: _340  and  _341
REMARK  136  A    between atoms: _340  and  _343
REMARK  137  A    between atoms: _343  and  _344
REMARK  138  A    between atoms: _347  and  _349
REMARK  139  A    between atoms: _349  and  _350
REMARK  140  A    between atoms: _349  and  _352
REMARK  141  A    between atoms: _352  and  _353
REMARK  142  A    between atoms: _356  and  _358
REMARK  143  A    between atoms: _358  and  _359
REMARK  144  A    between atoms: _358  and  _361
REMARK  145  A    between atoms: _361  and  _362
REMARK  146  A    between atoms: _365  and  _367
REMARK  147  A    between atoms: _367  and  _368
REMARK  148  A    between atoms: _370  and  _372
REMARK  149  A    between atoms: _372  and  _373
REMARK  150  A    between atoms: _376  and  _378
REMARK  151  A    between atoms: _378  and  _379
REMARK  152  A    between atoms: _378  and  _381
REMARK  153  A    between atoms: _381  and  _382
REMARK  154  A    between atoms: _385  and  _387
REMARK  155  A    between atoms: _387  and  _388
REMARK  156  A    between atoms: _387  and  _390
REMARK  157  A    between atoms: _390  and  _391
REMARK  158  A    between atoms: _394  and  _396
REMARK  159  A    between atoms: _396  and  _397
REMARK  160  A    between atoms: _396  and  _399
REMARK  161  A    between atoms: _399  and  _400
REMARK  162  A    between atoms: _403  and  _405
REMARK  163  A    between atoms: _405  and  _406
REMARK  164  A    between atoms: _405  and  _408
REMARK  165  A    between atoms: _411  and  _413
REMARK  166  A    between atoms: _413  and  _414
REMARK  167  A    between atoms: _413  and  _416
REMARK  168  A    between atoms: _416  and  _417
REMARK  169  A    between atoms: _417  and  _418
REMARK  170  A    between atoms: _420  and  _422
REMARK  171  A    between atoms: _422  and  _423
REMARK  172  A    between atoms: _422  and  _425
REMARK  173  A    between atoms: _425  and  _426
REMARK  174  A    between atoms: _429  and  _431
REMARK  175  A    between atoms: _431  and  _432
REMARK  176  A    between atoms: _434  and  _436
REMARK  177  A    between atoms: _436  and  _437
REMARK  178  A    between atoms: _439  and  _441
REMARK  179  A    between atoms: _441  and  _442
REMARK  180  A    between atoms: _441  and  _444
REMARK  181  A    between atoms: _444  and  _445
REMARK  182  A    between atoms: _448  and  _450
REMARK  183  A    between atoms: _450  and  _451
REMARK  184  A    between atoms: _453  and  _455
REMARK  185  A    between atoms: _455  and  _456
REMARK  186  A    between atoms: _458  and  _460
REMARK  187  A    between atoms: _460  and  _461
REMARK  188  A    between atoms: _460  and  _463
REMARK  189  A    between atoms: _463  and  _464
REMARK  190  A    between atoms: _470  and  _472
REMARK  191  A    between atoms: _472  and  _473
REMARK  192  A    between atoms: _472  and  _475
REMARK  193  A    between atoms: _475  and  _476
REMARK  194  A    between atoms: _479  and  _481
REMARK  195  A    between atoms: _481  and  _482
REMARK  196  A    between atoms: _481  and  _484
REMARK  197  A    between atoms: _487  and  _489
REMARK  198  A    between atoms: _489  and  _490
REMARK  199  A    between atoms: _489  and  _492
REMARK  200  A    between atoms: _492  and  _493
REMARK  201  A    between atoms: _496  and  _498
REMARK  202  A    between atoms: _498  and  _499
REMARK  203  A    between atoms: _498  and  _501
REMARK  204  A    between atoms: _501  and  _502
REMARK  205  A    between atoms: _506  and  _507
REMARK  206  A    between atoms: _512  and  _514
REMARK  207  A    between atoms: _514  and  _515
REMARK  208  A    between atoms: _514  and  _517
REMARK  209  A    between atoms: _520  and  _522
REMARK  210  A    between atoms: _522  and  _523
REMARK  211  A    between atoms: _522  and  _525
REMARK  212  A    between atoms: _525  and  _526
REMARK  213  A    between atoms: _531  and  _533
REMARK  214  A    between atoms: _533  and  _534
REMARK  215  A    between atoms: _533  and  _536
REMARK  216  A    between atoms: _536  and  _537
REMARK  217  A    between atoms: _540  and  _542
REMARK  218  A    between atoms: _542  and  _543
REMARK  219  A    between atoms: _542  and  _545
REMARK  220  A    between atoms: _545  and  _546
REMARK  221  A    between atoms: _549  and  _551
REMARK  222  A    between atoms: _551  and  _552
REMARK  223  A    between atoms: _554  and  _556
REMARK  224  A    between atoms: _556  and  _557
REMARK  225  A    between atoms: _556  and  _559
REMARK  226  A    between atoms: _559  and  _560
REMARK  227  A    between atoms: _560  and  _561
REMARK  228  A    between atoms: _561  and  _562
REMARK                            x       y       z     vdW  Elec       q    Type
REMARK                         _______ _______ _______ _____ _____    ______ ____
ROOT
ATOM      1  O   HOH     1      13.560   8.263  11.188  0.00  0.00    +0.000 OA
ENDROOT
TORSDOF 0
REMARK  Name = ../refined-set-2016/1dif/1dif_pocket.pdb
REMARK  228 active torsions:
REMARK  status: ('A' for Active; 'I' for Inactive)
REMARK    1  A    between atoms: _1  and  _3
REMARK    2  A    between atoms: _3  and  _4
REMARK    3  A    between atoms: _3  and  _6
REMARK    4  A    between atoms: _6  and  _7
REMARK    5  A    between atoms: _7  and  _8
REMARK    6  A    between atoms: _8  and  _9
REMARK    7  A    between atoms: _19  and  _20
REMARK    8  A    between atoms: _25  and  _27
REMARK    9  A    between atoms: _27  and  _28
REMARK   10  A    between atoms: _27  and  _30
REMARK   11  A    between atoms: _30  and  _31
REMARK   12  A    between atoms: _34  and  _36
REMARK   13  A    between atoms: _36  and  _37
REMARK   14  A    between atoms: _36  and  _39
REMARK   15  A    between atoms: _39  and  _40
REMARK   16  A    between atoms: _43  and  _45
REMARK   17  A    between atoms: _45  and  _46
REMARK   18  A    between atoms: _45  and  _48
REMARK   19  A    between atoms: _48  and  _49
REMARK   20  A    between atoms: _52  and  _54
REMARK   21  A    between atoms: _54  and  _55
REMARK   22  A    between atoms: _54  and  _57
REMARK   23  A    between atoms: _57  and  _58
REMARK   24  A    between atoms: _61  and  _63
REMARK   25  A    between atoms: _63  and  _64
REMARK   26  A    between atoms: _63  and  _66
REMARK   27  A    between atoms: _66  and  _67
REMARK   28  A    between atoms: _70  and  _72
REMARK   29  A    between atoms: _72  and  _73
REMARK   30  A    between atoms: _75  and  _77
REMARK   31  A    between atoms: _77  and  _78
REMARK   32  A    between atoms: _81  and  _83
REMARK   33  A    between atoms: _83  and  _84
REMARK   34  A    between atoms: _83  and  _86
REMARK   35  A    between atoms: _86  and  _87
REMARK   36  A    between atoms: _90  and  _92
REMARK   37  A    between atoms: _92  and  _93
REMARK   38  A    between atoms: _92  and  _95
REMARK   39  A    between atoms: _95  and  _96
REMARK   40  A    between atoms: _99  and  _101
REMARK   41  A    between atoms: _101  and  _102
REMARK   42  A    between atoms: _101  and  _104
REMARK   43  A    between atoms: _104  and  _105
REMARK   44  A    between atoms: _108  and  _110
REMARK   45  A    between atoms: _110  and  _111
REMARK   46  A    between atoms: _110  and  _113
REMARK   47  A    between atoms: _116  and  _118
REMARK   48  A    between atoms: _118  and  _119
REMARK   49  A    between atoms: _118  and  _121
REMARK   50  A    between atoms: _121  and  _122
REMARK   51  A    between atoms: _122  and  _123
REMARK   52  A    between atoms: _123  and  _124
REMARK   53  A    between atoms: _124  and  _125
REMARK   54  A    between atoms: _129  and  _131
REMARK   55  A    between atoms: _131  and  _132
REMARK   56  A    between atoms: _131  and  _134
REMARK   57  A    between atoms: _134  and  _135
REMARK   58  A    between atoms: _135  and  _136
REMARK   59  A    between atoms: _138  and  _140
REMARK   60  A    between atoms: _140  and  _141
REMARK   61  A    between atoms: _140  and  _143
REMARK   62  A    between atoms: _143  and  _144
REMARK   63  A    between atoms: _147  and  _149
REMARK   64  A    between atoms: _149  and  _150
REMARK   65  A    between atoms: _152  and  _154
REMARK   66  A    between atoms: _154  and  _155
REMARK   67  A    between atoms: _157  and  _159
REMARK   68  A    between atoms: _159  and  _160
REMARK   69  A    between atoms: _159  and  _162
REMARK   70  A    between atoms: _162  and  _163
REMARK   71  A    between atoms: _166  and  _168
REMARK   72  A    between atoms: _168  and  _169
REMARK   73  A    between atoms: _171  and  _173
REMARK   74  A    between atoms: _173  and  _174
REMARK   75  A    between atoms: _176  and  _178
REMARK   76  A    between atoms: _178  and  _179
REMARK   77  A    between atoms: _178  and  _181
REMARK   78  A    between atoms: _181  and  _182
REMARK   79  A    between atoms: _188  and  _190
REMARK   80  A    between atoms: _190  and  _191
REMARK   81  A    between atoms: _190  and  _193
REMARK   82  A    between atoms: _193  and  _194
REMARK   83  A    between atoms: _197  and  _199
REMARK   84  A    between atoms: _199  and  _200
REMARK   85  A    between atoms: _199  and  _202
REMARK   86  A    between atoms: _205  and  _207
REMARK   87  A    between atoms: _207  and  _208
REMARK   88  A    between atoms: _207  and  _210
REMARK   89  A    between atoms: _210  and  _211
REMARK   90  A    between atoms: _215  and  _216
REMARK   91  A    between atoms: _221  and  _223
REMARK   92  A    between atoms: _223  and  _224
REMARK   93  A    between atoms: _223  and  _226
REMARK   94  A    between atoms: _226  and  _227
REMARK   95  A    between atoms: _231  and  _232
REMARK   96  A    between atoms: _237  and  _239
REMARK   97  A    between atoms: _239  and  _240
REMARK   98  A    between atoms: _239  and  _242
REMARK   99  A    between atoms: _245  and  _247
REMARK  100  A    between atoms: _247  and  _248
REMARK  101  A    between atoms: _247  and  _250
REMARK  102  A    between atoms: _250  and  _251
REMARK  103  A    between atoms: _256  and  _258
REMARK  104  A    between atoms: _258  and  _259
REMARK  105  A    between atoms: _258  and  _261
REMARK  106  A    between atoms: _261  and  _262
REMARK  107  A    between atoms: _265  and  _267
REMARK  108  A    between atoms: _267  and  _268
REMARK  109  A    between atoms: _267  and  _270
REMARK  110  A    between atoms: _270  and  _271
REMARK  111  A    between atoms: _274  and  _276
REMARK  112  A    between atoms: _276  and  _277
REMARK  113  A    between atoms: _279  and  _281
REMARK  114  A    between atoms: _281  and  _282
REMARK  115  A    between atoms: _281  and  _284
REMARK  116  A    between atoms: _284  and  _285
REMARK  117  A    between atoms: _285  and  _286
REMARK  118  A    between atoms: _286  and  _287
REMARK  119  A    between atoms: _296  and  _298
REMARK  120  A    between atoms: _298  and  _299
REMARK  121  A    between atoms: _298  and  _301
REMARK  122  A    between atoms: _301  and  _302
REMARK  123  A    between atoms: _302  and  _303
REMARK  124  A    between atoms: _303  and  _304
REMARK  125  A    between atoms: _314  and  _315
REMARK  126  A    between atoms: _320  and  _322
REMARK  127  A    between atoms: _322  and  _323
REMARK  128  A    between atoms: _322  and  _325
REMARK  129  A    between atoms: _325  and  _326
REMARK  130  A    between atoms: _329  and  _331
REMARK  131  A    between atoms: _331  and  _332
REMARK  132  A    between atoms: _331  and  _334
REMARK  133  A    between atoms: _334  and  _335
REMARK  134  A    between atoms: _338  and  _340
REMARK  135  A    between atoms: _340  and  _341
REMARK  136  A    between atoms: _340  and  _343
REMARK  137  A    between atoms: _343  and  _344
REMARK  138  A    between atoms: _347  and  _349
REMARK  139  A    between atoms: _349  and  _350
REMARK  140  A    between atoms: _349  and  _352
REMARK  141  A    between atoms: _352  and  _353
REMARK  142  A    between atoms: _356  and  _358
REMARK  143  A    between atoms: _358  and  _359
REMARK  144  A    between atoms: _358  and  _361
REMARK  145  A    between atoms: _361  and  _362
REMARK  146  A    between atoms: _365  and  _367
REMARK  147  A    between atoms: _367  and  _368
REMARK  148  A    between atoms: _370  and  _372
REMARK  149  A    between atoms: _372  and  _373
REMARK  150  A    between atoms: _376  and  _378
REMARK  151  A    between atoms: _378  and  _379
REMARK  152  A    between atoms: _378  and  _381
REMARK  153  A    between atoms: _381  and  _382
REMARK  154  A    between atoms: _385  and  _387
REMARK  155  A    between atoms: _387  and  _388
REMARK  156  A    between atoms: _387  and  _390
REMARK  157  A    between atoms: _390  and  _391
REMARK  158  A    between atoms: _394  and  _396
REMARK  159  A    between atoms: _396  and  _397
REMARK  160  A    between atoms: _396  and  _399
REMARK  161  A    between atoms: _399  and  _400
REMARK  162  A    between atoms: _403  and  _405
REMARK  163  A    between atoms: _405  and  _406
REMARK  164  A    between atoms: _405  and  _408
REMARK  165  A    between atoms: _411  and  _413
REMARK  166  A    between atoms: _413  and  _414
REMARK  167  A    between atoms: _413  and  _416
REMARK  168  A    between atoms: _416  and  _417
REMARK  169  A    between atoms: _417  and  _418
REMARK  170  A    between atoms: _420  and  _422
REMARK  171  A    between atoms: _422  and  _423
REMARK  172  A    between atoms: _422  and  _425
REMARK  173  A    between atoms: _425  and  _426
REMARK  174  A    between atoms: _429  and  _431
REMARK  175  A    between atoms: _431  and  _432
REMARK  176  A    between atoms: _434  and  _436
REMARK  177  A    between atoms: _436  and  _437
REMARK  178  A    between atoms: _439  and  _441
REMARK  179  A    between atoms: _441  and  _442
REMARK  180  A    between atoms: _441  and  _444
REMARK  181  A    between atoms: _444  and  _445
REMARK  182  A    between atoms: _448  and  _450
REMARK  183  A    between atoms: _450  and  _451
REMARK  184  A    between atoms: _453  and  _455
REMARK  185  A    between atoms: _455  and  _456
REMARK  186  A    between atoms: _458  and  _460
REMARK  187  A    between atoms: _460  and  _461
REMARK  188  A    between atoms: _460  and  _463
REMARK  189  A    between atoms: _463  and  _464
REMARK  190  A    between atoms: _470  and  _472
REMARK  191  A    between atoms: _472  and  _473
REMARK  192  A    between atoms: _472  and  _475
REMARK  193  A    between atoms: _475  and  _476
REMARK  194  A    between atoms: _479  and  _481
REMARK  195  A    between atoms: _481  and  _482
REMARK  196  A    between atoms: _481  and  _484
REMARK  197  A    between atoms: _487  and  _489
REMARK  198  A    between atoms: _489  and  _490
REMARK  199  A    between atoms: _489  and  _492
REMARK  200  A    between atoms: _492  and  _493
REMARK  201  A    between atoms: _496  and  _498
REMARK  202  A    between atoms: _498  and  _499
REMARK  203  A    between atoms: _498  and  _501
REMARK  204  A    between atoms: _501  and  _502
REMARK  205  A    between atoms: _506  and  _507
REMARK  206  A    between atoms: _512  and  _514
REMARK  207  A    between atoms: _514  and  _515
REMARK  208  A    between atoms: _514  and  _517
REMARK  209  A    between atoms: _520  and  _522
REMARK  210  A    between atoms: _522  and  _523
REMARK  211  A    between atoms: _522  and  _525
REMARK  212  A    between atoms: _525  and  _526
REMARK  213  A    between atoms: _531  and  _533
REMARK  214  A    between atoms: _533  and  _534
REMARK  215  A    between atoms: _533  and  _536
REMARK  216  A    between atoms: _536  and  _537
REMARK  217  A    between atoms: _540  and  _542
REMARK  218  A    between atoms: _542  and  _543
REMARK  219  A    between atoms: _542  and  _545
REMARK  220  A    between atoms: _545  and  _546
REMARK  221  A    between atoms: _549  and  _551
REMARK  222  A    between atoms: _551  and  _552
REMARK  223  A    between atoms: _554  and  _556
REMARK  224  A    between atoms: _556  and  _557
REMARK  225  A    between atoms: _556  and  _559
REMARK  226  A    between atoms: _559  and  _560
REMARK  227  A    between atoms: _560  and  _561
REMARK  228  A    between atoms: _561  and  _562
REMARK                            x       y       z     vdW  Elec       q    Type
REMARK                         _______ _______ _______ _____ _____    ______ ____
ROOT
ATOM      1  O   HOH     1       7.138 -12.901  19.970  0.00  0.00    +0.000 OA
ENDROOT
TORSDOF 0
REMARK  Name = ../refined-set-2016/1dif/1dif_pocket.pdb
REMARK  228 active torsions:
REMARK  status: ('A' for Active; 'I' for Inactive)
REMARK    1  A    between atoms: _1  and  _3
REMARK    2  A    between atoms: _3  and  _4
REMARK    3  A    between atoms: _3  and  _6
REMARK    4  A    between atoms: _6  and  _7
REMARK    5  A    between atoms: _7  and  _8
REMARK    6  A    between atoms: _8  and  _9
REMARK    7  A    between atoms: _19  and  _20
REMARK    8  A    between atoms: _25  and  _27
REMARK    9  A    between atoms: _27  and  _28
REMARK   10  A    between atoms: _27  and  _30
REMARK   11  A    between atoms: _30  and  _31
REMARK   12  A    between atoms: _34  and  _36
REMARK   13  A    between atoms: _36  and  _37
REMARK   14  A    between atoms: _36  and  _39
REMARK   15  A    between atoms: _39  and  _40
REMARK   16  A    between atoms: _43  and  _45
REMARK   17  A    between atoms: _45  and  _46
REMARK   18  A    between atoms: _45  and  _48
REMARK   19  A    between atoms: _48  and  _49
REMARK   20  A    between atoms: _52  and  _54
REMARK   21  A    between atoms: _54  and  _55
REMARK   22  A    between atoms: _54  and  _57
REMARK   23  A    between atoms: _57  and  _58
REMARK   24  A    between atoms: _61  and  _63
REMARK   25  A    between atoms: _63  and  _64
REMARK   26  A    between atoms: _63  and  _66
REMARK   27  A    between atoms: _66  and  _67
REMARK   28  A    between atoms: _70  and  _72
REMARK   29  A    between atoms: _72  and  _73
REMARK   30  A    between atoms: _75  and  _77
REMARK   31  A    between atoms: _77  and  _78
REMARK   32  A    between atoms: _81  and  _83
REMARK   33  A    between atoms: _83  and  _84
REMARK   34  A    between atoms: _83  and  _86
REMARK   35  A    between atoms: _86  and  _87
REMARK   36  A    between atoms: _90  and  _92
REMARK   37  A    between atoms: _92  and  _93
REMARK   38  A    between atoms: _92  and  _95
REMARK   39  A    between atoms: _95  and  _96
REMARK   40  A    between atoms: _99  and  _101
REMARK   41  A    between atoms: _101  and  _102
REMARK   42  A    between atoms: _101  and  _104
REMARK   43  A    between atoms: _104  and  _105
REMARK   44  A    between atoms: _108  and  _110
REMARK   45  A    between atoms: _110  and  _111
REMARK   46  A    between atoms: _110  and  _113
REMARK   47  A    between atoms: _116  and  _118
REMARK   48  A    between atoms: _118  and  _119
REMARK   49  A    between atoms: _118  and  _121
REMARK   50  A    between atoms: _121  and  _122
REMARK   51  A    between atoms: _122  and  _123
REMARK   52  A    between atoms: _123  and  _124
REMARK   53  A    between atoms: _124  and  _125
REMARK   54  A    between atoms: _129  and  _131
REMARK   55  A    between atoms: _131  and  _132
REMARK   56  A    between atoms: _131  and  _134
REMARK   57  A    between atoms: _134  and  _135
REMARK   58  A    between atoms: _135  and  _136
REMARK   59  A    between atoms: _138  and  _140
REMARK   60  A    between atoms: _140  and  _141
REMARK   61  A    between atoms: _140  and  _143
REMARK   62  A    between atoms: _143  and  _144
REMARK   63  A    between atoms: _147  and  _149
REMARK   64  A    between atoms: _149  and  _150
REMARK   65  A    between atoms: _152  and  _154
REMARK   66  A    between atoms: _154  and  _155
REMARK   67  A    between atoms: _157  and  _159
REMARK   68  A    between atoms: _159  and  _160
REMARK   69  A    between atoms: _159  and  _162
REMARK   70  A    between atoms: _162  and  _163
REMARK   71  A    between atoms: _166  and  _168
REMARK   72  A    between atoms: _168  and  _169
REMARK   73  A    between atoms: _171  and  _173
REMARK   74  A    between atoms: _173  and  _174
REMARK   75  A    between atoms: _176  and  _178
REMARK   76  A    between atoms: _178  and  _179
REMARK   77  A    between atoms: _178  and  _181
REMARK   78  A    between atoms: _181  and  _182
REMARK   79  A    between atoms: _188  and  _190
REMARK   80  A    between atoms: _190  and  _191
REMARK   81  A    between atoms: _190  and  _193
REMARK   82  A    between atoms: _193  and  _194
REMARK   83  A    between atoms: _197  and  _199
REMARK   84  A    between atoms: _199  and  _200
REMARK   85  A    between atoms: _199  and  _202
REMARK   86  A    between atoms: _205  and  _207
REMARK   87  A    between atoms: _207  and  _208
REMARK   88  A    between atoms: _207  and  _210
REMARK   89  A    between atoms: _210  and  _211
REMARK   90  A    between atoms: _215  and  _216
REMARK   91  A    between atoms: _221  and  _223
REMARK   92  A    between atoms: _223  and  _224
REMARK   93  A    between atoms: _223  and  _226
REMARK   94  A    between atoms: _226  and  _227
REMARK   95  A    between atoms: _231  and  _232
REMARK   96  A    between atoms: _237  and  _239
REMARK   97  A    between atoms: _239  and  _240
REMARK   98  A    between atoms: _239  and  _242
REMARK   99  A    between atoms: _245  and  _247
REMARK  100  A    between atoms: _247  and  _248
REMARK  101  A    between atoms: _247  and  _250
REMARK  102  A    between atoms: _250  and  _251
REMARK  103  A    between atoms: _256  and  _258
REMARK  104  A    between atoms: _258  and  _259
REMARK  105  A    between atoms: _258  and  _261
REMARK  106  A    between atoms: _261  and  _262
REMARK  107  A    between atoms: _265  and  _267
REMARK  108  A    between atoms: _267  and  _268
REMARK  109  A    between atoms: _267  and  _270
REMARK  110  A    between atoms: _270  and  _271
REMARK  111  A    between atoms: _274  and  _276
REMARK  112  A    between atoms: _276  and  _277
REMARK  113  A    between atoms: _279  and  _281
REMARK  114  A    between atoms: _281  and  _282
REMARK  115  A    between atoms: _281  and  _284
REMARK  116  A    between atoms: _284  and  _285
REMARK  117  A    between atoms: _285  and  _286
REMARK  118  A    between atoms: _286  and  _287
REMARK  119  A    between atoms: _296  and  _298
REMARK  120  A    between atoms: _298  and  _299
REMARK  121  A    between atoms: _298  and  _301
REMARK  122  A    between atoms: _301  and  _302
REMARK  123  A    between atoms: _302  and  _303
REMARK  124  A    between atoms: _303  and  _304
REMARK  125  A    between atoms: _314  and  _315
REMARK  126  A    between atoms: _320  and  _322
REMARK  127  A    between atoms: _322  and  _323
REMARK  128  A    between atoms: _322  and  _325
REMARK  129  A    between atoms: _325  and  _326
REMARK  130  A    between atoms: _329  and  _331
REMARK  131  A    between atoms: _331  and  _332
REMARK  132  A    between atoms: _331  and  _334
REMARK  133  A    between atoms: _334  and  _335
REMARK  134  A    between atoms: _338  and  _340
REMARK  135  A    between atoms: _340  and  _341
REMARK  136  A    between atoms: _340  and  _343
REMARK  137  A    between atoms: _343  and  _344
REMARK  138  A    between atoms: _347  and  _349
REMARK  139  A    between atoms: _349  and  _350
REMARK  140  A    between atoms: _349  and  _352
REMARK  141  A    between atoms: _352  and  _353
REMARK  142  A    between atoms: _356  and  _358
REMARK  143  A    between atoms: _358  and  _359
REMARK  144  A    between atoms: _358  and  _361
REMARK  145  A    between atoms: _361  and  _362
REMARK  146  A    between atoms: _365  and  _367
REMARK  147  A    between atoms: _367  and  _368
REMARK  148  A    between atoms: _370  and  _372
REMARK  149  A    between atoms: _372  and  _373
REMARK  150  A    between atoms: _376  and  _378
REMARK  151  A    between atoms: _378  and  _379
REMARK  152  A    between atoms: _378  and  _381
REMARK  153  A    between atoms: _381  and  _382
REMARK  154  A    between atoms: _385  and  _387
REMARK  155  A    between atoms: _387  and  _388
REMARK  156  A    between atoms: _387  and  _390
REMARK  157  A    between atoms: _390  and  _391
REMARK  158  A    between atoms: _394  and  _396
REMARK  159  A    between atoms: _396  and  _397
REMARK  160  A    between atoms: _396  and  _399
REMARK  161  A    between atoms: _399  and  _400
REMARK  162  A    between atoms: _403  and  _405
REMARK  163  A    between atoms: _405  and  _406
REMARK  164  A    between atoms: _405  and  _408
REMARK  165  A    between atoms: _411  and  _413
REMARK  166  A    between atoms: _413  and  _414
REMARK  167  A    between atoms: _413  and  _416
REMARK  168  A    between atoms: _416  and  _417
REMARK  169  A    between atoms: _417  and  _418
REMARK  170  A    between atoms: _420  and  _422
REMARK  171  A    between atoms: _422  and  _423
REMARK  172  A    between atoms: _422  and  _425
REMARK  173  A    between atoms: _425  and  _426
REMARK  174  A    between atoms: _429  and  _431
REMARK  175  A    between atoms: _431  and  _432
REMARK  176  A    between atoms: _434  and  _436
REMARK  177  A    between atoms: _436  and  _437
REMARK  178  A    between atoms: _439  and  _441
REMARK  179  A    between atoms: _441  and  _442
REMARK  180  A    between atoms: _441  and  _444
REMARK  181  A    between atoms: _444  and  _445
REMARK  182  A    between atoms: _448  and  _450
REMARK  183  A    between atoms: _450  and  _451
REMARK  184  A    between atoms: _453  and  _455
REMARK  185  A    between atoms: _455  and  _456
REMARK  186  A    between atoms: _458  and  _460
REMARK  187  A    between atoms: _460  and  _461
REMARK  188  A    between atoms: _460  and  _463
REMARK  189  A    between atoms: _463  and  _464
REMARK  190  A    between atoms: _470  and  _472
REMARK  191  A    between atoms: _472  and  _473
REMARK  192  A    between atoms: _472  and  _475
REMARK  193  A    between atoms: _475  and  _476
REMARK  194  A    between atoms: _479  and  _481
REMARK  195  A    between atoms: _481  and  _482
REMARK  196  A    between atoms: _481  and  _484
REMARK  197  A    between atoms: _487  and  _489
REMARK  198  A    between atoms: _489  and  _490
REMARK  199  A    between atoms: _489  and  _492
REMARK  200  A    between atoms: _492  and  _493
REMARK  201  A    between atoms: _496  and  _498
REMARK  202  A    between atoms: _498  and  _499
REMARK  203  A    between atoms: _498  and  _501
REMARK  204  A    between atoms: _501  and  _502
REMARK  205  A    between atoms: _506  and  _507
REMARK  206  A    between atoms: _512  and  _514
REMARK  207  A    between atoms: _514  and  _515
REMARK  208  A    between atoms: _514  and  _517
REMARK  209  A    between atoms: _520  and  _522
REMARK  210  A    between atoms: _522  and  _523
REMARK  211  A    between atoms: _522  and  _525
REMARK  212  A    between atoms: _525  and  _526
REMARK  213  A    between atoms: _531  and  _533
REMARK  214  A    between atoms: _533  and  _534
REMARK  215  A    between atoms: _533  and  _536
REMARK  216  A    between atoms: _536  and  _537
REMARK  217  A    between atoms: _540  and  _542
REMARK  218  A    between atoms: _542  and  _543
REMARK  219  A    between atoms: _542  and  _545
REMARK  220  A    between atoms: _545  and  _546
REMARK  221  A    between atoms: _549  and  _551
REMARK  222  A    between atoms: _551  and  _552
REMARK  223  A    between atoms: _554  and  _556
REMARK  224  A    between atoms: _556  and  _557
REMARK  225  A    between atoms: _556  and  _559
REMARK  226  A    between atoms: _559  and  _560
REMARK  227  A    between atoms: _560  and  _561
REMARK  228  A    between atoms: _561  and  _562
REMARK                            x       y       z     vdW  Elec       q    Type
REMARK                         _______ _______ _______ _____ _____    ______ ____
ROOT
ATOM      1  O   HOH     1       8.902 -10.441  20.973  0.00  0.00    +0.000 OA
ENDROOT
TORSDOF 0
