REMARK  Name = ../refined-set-2016/1nvq/1nvq_pocket.pdb
REMARK  223 active torsions:
REMARK  status: ('A' for Active; 'I' for Inactive)
REMARK    1  A    between atoms: _1  and  _3
REMARK    2  A    between atoms: _3  and  _4
REMARK    3  A    between atoms: _3  and  _6
REMARK    4  A    between atoms: _6  and  _7
REMARK    5  A    between atoms: _7  and  _8
REMARK    6  A    between atoms: _13  and  _15
REMARK    7  A    between atoms: _15  and  _16
REMARK    8  A    between atoms: _15  and  _18
REMARK    9  A    between atoms: _18  and  _19
REMARK   10  A    between atoms: _22  and  _24
REMARK   11  A    between atoms: _24  and  _25
REMARK   12  A    between atoms: _24  and  _27
REMARK   13  A    between atoms: _27  and  _28
REMARK   14  A    between atoms: _31  and  _33
REMARK   15  A    between atoms: _33  and  _34
REMARK   16  A    between atoms: _36  and  _38
REMARK   17  A    between atoms: _38  and  _39
REMARK   18  A    between atoms: _38  and  _41
REMARK   19  A    between atoms: _41  and  _42
REMARK   20  A    between atoms: _42  and  _43
REMARK   21  A    between atoms: _46  and  _48
REMARK   22  A    between atoms: _48  and  _49
REMARK   23  A    between atoms: _51  and  _53
REMARK   24  A    between atoms: _53  and  _54
REMARK   25  A    between atoms: _53  and  _56
REMARK   26  A    between atoms: _56  and  _57
REMARK   27  A    between atoms: _62  and  _63
REMARK   28  A    between atoms: _65  and  _67
REMARK   29  A    between atoms: _67  and  _68
REMARK   30  A    between atoms: _70  and  _72
REMARK   31  A    between atoms: _72  and  _73
REMARK   32  A    between atoms: _72  and  _75
REMARK   33  A    between atoms: _75  and  _76
REMARK   34  A    between atoms: _76  and  _77
REMARK   35  A    between atoms: _80  and  _82
REMARK   36  A    between atoms: _82  and  _83
REMARK   37  A    between atoms: _82  and  _85
REMARK   38  A    between atoms: _88  and  _90
REMARK   39  A    between atoms: _90  and  _91
REMARK   40  A    between atoms: _90  and  _93
REMARK   41  A    between atoms: _93  and  _94
REMARK   42  A    between atoms: _94  and  _95
REMARK   43  A    between atoms: _100  and  _102
REMARK   44  A    between atoms: _102  and  _103
REMARK   45  A    between atoms: _102  and  _105
REMARK   46  A    between atoms: _105  and  _106
REMARK   47  A    between atoms: _109  and  _111
REMARK   48  A    between atoms: _111  and  _112
REMARK   49  A    between atoms: _115  and  _117
REMARK   50  A    between atoms: _117  and  _118
REMARK   51  A    between atoms: _121  and  _123
REMARK   52  A    between atoms: _123  and  _124
REMARK   53  A    between atoms: _123  and  _126
REMARK   54  A    between atoms: _129  and  _131
REMARK   55  A    between atoms: _131  and  _132
REMARK   56  A    between atoms: _135  and  _137
REMARK   57  A    between atoms: _137  and  _138
REMARK   58  A    between atoms: _137  and  _140
REMARK   59  A    between atoms: _143  and  _145
REMARK   60  A    between atoms: _145  and  _146
REMARK   61  A    between atoms: _145  and  _148
REMARK   62  A    between atoms: _148  and  _149
REMARK   63  A    between atoms: _149  and  _150
REMARK   64  A    between atoms: _150  and  _151
REMARK   65  A    between atoms: _151  and  _152
REMARK   66  A    between atoms: _156  and  _158
REMARK   67  A    between atoms: _158  and  _159
REMARK   68  A    between atoms: _158  and  _161
REMARK   69  A    between atoms: _161  and  _162
REMARK   70  A    between atoms: _165  and  _167
REMARK   71  A    between atoms: _167  and  _168
REMARK   72  A    between atoms: _167  and  _170
REMARK   73  A    between atoms: _173  and  _175
REMARK   74  A    between atoms: _175  and  _176
REMARK   75  A    between atoms: _175  and  _178
REMARK   76  A    between atoms: _178  and  _179
REMARK   77  A    between atoms: _179  and  _180
REMARK   78  A    between atoms: _183  and  _185
REMARK   79  A    between atoms: _185  and  _186
REMARK   80  A    between atoms: _185  and  _188
REMARK   81  A    between atoms: _188  and  _189
REMARK   82  A    between atoms: _194  and  _196
REMARK   83  A    between atoms: _196  and  _197
REMARK   84  A    between atoms: _196  and  _199
REMARK   85  A    between atoms: _202  and  _204
REMARK   86  A    between atoms: _204  and  _205
REMARK   87  A    between atoms: _204  and  _207
REMARK   88  A    between atoms: _210  and  _212
REMARK   89  A    between atoms: _212  and  _213
REMARK   90  A    between atoms: _212  and  _215
REMARK   91  A    between atoms: _215  and  _216
REMARK   92  A    between atoms: _216  and  _217
REMARK   93  A    between atoms: _217  and  _218
REMARK   94  A    between atoms: _218  and  _219
REMARK   95  A    between atoms: _223  and  _225
REMARK   96  A    between atoms: _225  and  _226
REMARK   97  A    between atoms: _225  and  _228
REMARK   98  A    between atoms: _228  and  _229
REMARK   99  A    between atoms: _235  and  _237
REMARK  100  A    between atoms: _237  and  _238
REMARK  101  A    between atoms: _237  and  _240
REMARK  102  A    between atoms: _240  and  _241
REMARK  103  A    between atoms: _246  and  _247
REMARK  104  A    between atoms: _249  and  _251
REMARK  105  A    between atoms: _251  and  _252
REMARK  106  A    between atoms: _251  and  _254
REMARK  107  A    between atoms: _254  and  _255
REMARK  108  A    between atoms: _258  and  _260
REMARK  109  A    between atoms: _260  and  _261
REMARK  110  A    between atoms: _260  and  _263
REMARK  111  A    between atoms: _263  and  _264
REMARK  112  A    between atoms: _270  and  _272
REMARK  113  A    between atoms: _272  and  _273
REMARK  114  A    between atoms: _272  and  _275
REMARK  115  A    between atoms: _275  and  _276
REMARK  116  A    between atoms: _279  and  _281
REMARK  117  A    between atoms: _281  and  _282
REMARK  118  A    between atoms: _281  and  _284
REMARK  119  A    between atoms: _284  and  _285
REMARK  120  A    between atoms: _285  and  _286
REMARK  121  A    between atoms: _289  and  _291
REMARK  122  A    between atoms: _291  and  _292
REMARK  123  A    between atoms: _291  and  _294
REMARK  124  A    between atoms: _294  and  _295
REMARK  125  A    between atoms: _300  and  _301
REMARK  126  A    between atoms: _303  and  _305
REMARK  127  A    between atoms: _305  and  _306
REMARK  128  A    between atoms: _305  and  _308
REMARK  129  A    between atoms: _310  and  _312
REMARK  130  A    between atoms: _312  and  _313
REMARK  131  A    between atoms: _312  and  _315
REMARK  132  A    between atoms: _315  and  _316
REMARK  133  A    between atoms: _318  and  _320
REMARK  134  A    between atoms: _320  and  _321
REMARK  135  A    between atoms: _323  and  _325
REMARK  136  A    between atoms: _325  and  _326
REMARK  137  A    between atoms: _328  and  _330
REMARK  138  A    between atoms: _330  and  _331
REMARK  139  A    between atoms: _330  and  _333
REMARK  140  A    between atoms: _333  and  _334
REMARK  141  A    between atoms: _334  and  _335
REMARK  142  A    between atoms: _338  and  _340
REMARK  143  A    between atoms: _340  and  _341
REMARK  144  A    between atoms: _340  and  _343
REMARK  145  A    between atoms: _343  and  _344
REMARK  146  A    between atoms: _347  and  _349
REMARK  147  A    between atoms: _349  and  _350
REMARK  148  A    between atoms: _349  and  _352
REMARK  149  A    between atoms: _352  and  _353
REMARK  150  A    between atoms: _359  and  _361
REMARK  151  A    between atoms: _361  and  _362
REMARK  152  A    between atoms: _361  and  _364
REMARK  153  A    between atoms: _364  and  _365
REMARK  154  A    between atoms: _368  and  _370
REMARK  155  A    between atoms: _370  and  _371
REMARK  156  A    between atoms: _370  and  _373
REMARK  157  A    between atoms: _373  and  _374
REMARK  158  A    between atoms: _379  and  _381
REMARK  159  A    between atoms: _381  and  _382
REMARK  160  A    between atoms: _381  and  _384
REMARK  161  A    between atoms: _384  and  _385
REMARK  162  A    between atoms: _388  and  _390
REMARK  163  A    between atoms: _390  and  _391
REMARK  164  A    between atoms: _390  and  _393
REMARK  165  A    between atoms: _393  and  _394
REMARK  166  A    between atoms: _394  and  _395
REMARK  167  A    between atoms: _395  and  _396
REMARK  168  A    between atoms: _396  and  _397
REMARK  169  A    between atoms: _402  and  _403
REMARK  170  A    between atoms: _408  and  _410
REMARK  171  A    between atoms: _410  and  _411
REMARK  172  A    between atoms: _410  and  _413
REMARK  173  A    between atoms: _413  and  _414
REMARK  174  A    between atoms: _414  and  _415
REMARK  175  A    between atoms: _418  and  _420
REMARK  176  A    between atoms: _420  and  _421
REMARK  177  A    between atoms: _420  and  _423
REMARK  178  A    between atoms: _423  and  _424
REMARK  179  A    between atoms: _429  and  _431
REMARK  180  A    between atoms: _431  and  _432
REMARK  181  A    between atoms: _431  and  _434
REMARK  182  A    between atoms: _434  and  _435
REMARK  183  A    between atoms: _438  and  _440
REMARK  184  A    between atoms: _440  and  _441
REMARK  185  A    between atoms: _440  and  _443
REMARK  186  A    between atoms: _443  and  _444
REMARK  187  A    between atoms: _447  and  _449
REMARK  188  A    between atoms: _449  and  _450
REMARK  189  A    between atoms: _449  and  _452
REMARK  190  A    between atoms: _452  and  _453
REMARK  191  A    between atoms: _456  and  _458
REMARK  192  A    between atoms: _458  and  _459
REMARK  193  A    between atoms: _458  and  _461
REMARK  194  A    between atoms: _461  and  _462
REMARK  195  A    between atoms: _465  and  _467
REMARK  196  A    between atoms: _467  and  _468
REMARK  197  A    between atoms: _467  and  _470
REMARK  198  A    between atoms: _470  and  _471
REMARK  199  A    between atoms: _471  and  _472
REMARK  200  A    between atoms: _472  and  _473
REMARK  201  A    between atoms: _473  and  _474
REMARK  202  A    between atoms: _478  and  _480
REMARK  203  A    between atoms: _480  and  _481
REMARK  204  A    between atoms: _480  and  _483
REMARK  205  A    between atoms: _483  and  _484
REMARK  206  A    between atoms: _487  and  _489
REMARK  207  A    between atoms: _489  and  _490
REMARK  208  A    between atoms: _489  and  _492
REMARK  209  A    between atoms: _492  and  _493
REMARK  210  A    between atoms: _495  and  _497
REMARK  211  A    between atoms: _497  and  _498
REMARK  212  A    between atoms: _497  and  _500
REMARK  213  A    between atoms: _500  and  _501
REMARK  214  A    between atoms: _504  and  _506
REMARK  215  A    between atoms: _506  and  _507
REMARK  216  A    between atoms: _506  and  _509
REMARK  217  A    between atoms: _509  and  _510
REMARK  218  A    between atoms: _516  and  _518
REMARK  219  A    between atoms: _518  and  _519
REMARK  220  A    between atoms: _521  and  _523
REMARK  221  A    between atoms: _523  and  _524
REMARK  222  A    between atoms: _523  and  _526
REMARK  223  A    between atoms: _526  and  _527
REMARK                            x       y       z     vdW  Elec       q    Type
REMARK                         _______ _______ _______ _____ _____    ______ ____
ROOT
ATOM      1  CA  LEU A   3       2.382   3.418  21.611  0.00  0.00    +0.149 C 
ENDROOT
BRANCH   1   4
ATOM      2  C   THR A   2       2.081   1.782  23.376  0.00  0.00    +0.243 C 
ATOM      3  O   THR A   2       0.886   1.657  23.119  0.00  0.00    -0.273 OA
ATOM      4  N   LEU A   3       2.880   2.604  22.710  0.00  0.00    -0.297 N 
ATOM      5  H   LEU A   3       3.883   2.668  22.978  0.00  0.00    +0.150 HD
BRANCH   2   6
ATOM      6  CA  THR A   2       2.715   0.993  24.508  0.00  0.00    +0.176 C 
BRANCH   6   9
ATOM      7  C   GLN A   1       2.531   2.432  26.463  0.00  0.00    +0.238 C 
ATOM      8  O   GLN A   1       3.516   3.100  26.140  0.00  0.00    -0.274 OA
ATOM      9  N   THR A   2       2.081   1.404  25.751  0.00  0.00    -0.295 N 
ATOM     10  H   THR A   2       1.251   0.878  26.092  0.00  0.00    +0.150 HD
BRANCH   7  11
ATOM     11  CA  GLN A   1       1.745   2.742  27.731  0.00  0.00    +0.145 C 
BRANCH  11  12
ATOM     12  N   GLN A   1       2.569   3.193  28.841  0.00  0.00    -0.238 NA
ATOM     13  H   GLN A   1       3.548   3.501  28.676  0.00  0.00    +0.142 HD
ENDBRANCH  11  12
BRANCH  11  14
ATOM     14  CB  GLN A   1       0.689   3.813  27.446  0.00  0.00    +0.036 C 
BRANCH  14  15
ATOM     15  CG  GLN A   1      -0.298   3.496  26.342  0.00  0.00    +0.087 C 
BRANCH  15  16
ATOM     16  CD  GLN A   1      -1.363   4.576  26.217  0.00  0.00    +0.219 C 
ATOM     17  OE1 GLN A   1      -2.025   4.921  27.196  0.00  0.00    -0.275 OA
ATOM     18  NE2 GLN A   1      -1.532   5.113  25.011  0.00  0.00    -0.329 N 
ATOM     19 HE21 GLN A   1      -2.246   5.855  24.868  0.00  0.00    +0.145 HD
ATOM     20 HE22 GLN A   1      -0.950   4.790  24.212  0.00  0.00    +0.145 HD
ENDBRANCH  15  16
ENDBRANCH  14  15
ENDBRANCH  11  14
ENDBRANCH   7  11
ENDBRANCH   6   9
BRANCH   6  21
ATOM     21  CB  THR A   2       2.507  -0.509  24.245  0.00  0.00    +0.137 C 
ATOM     22  CG2 THR A   2       3.263  -0.939  22.994  0.00  0.00    +0.034 C 
BRANCH  21  23
ATOM     23  OG1 THR A   2       2.991  -1.259  25.365  0.00  0.00    -0.382 OA
ATOM     24  HG1 THR A   2       2.857  -2.225  25.196  0.00  0.00    +0.210 HD
ENDBRANCH  21  23
ENDBRANCH   6  21
ENDBRANCH   2   6
ENDBRANCH   1   4
BRANCH   1  25
ATOM     25  C   LEU A   3       2.354   2.634  20.304  0.00  0.00    +0.241 C 
ATOM     26  N   GLY A   4       3.398   1.849  20.069  0.00  0.00    -0.295 N 
ATOM     27  H   GLY A   4       4.172   1.801  20.762  0.00  0.00    +0.150 HD
ATOM     28  O   LEU A   3       1.407   2.738  19.531  0.00  0.00    -0.273 OA
BRANCH  26  29
ATOM     29  CA  GLY A   4       3.472   1.059  18.858  0.00  0.00    +0.176 C 
BRANCH  29  30
ATOM     30  C   GLY A   4       4.435  -0.099  19.013  0.00  0.00    +0.243 C 
ATOM     31  O   GLY A   4       5.367  -0.037  19.818  0.00  0.00    -0.273 OA
ATOM     32  N   GLU A   5       4.204  -1.161  18.247  0.00  0.00    -0.297 N 
ATOM     33  H   GLU A   5       3.392  -1.143  17.598  0.00  0.00    +0.150 HD
BRANCH  32  34
ATOM     34  CA  GLU A   5       5.049  -2.351  18.284  0.00  0.00    +0.149 C 
BRANCH  34  35
ATOM     35  C   GLU A   5       5.429  -2.742  16.865  0.00  0.00    +0.241 C 
ATOM     36  N   GLY A   6       5.884  -3.980  16.703  0.00  0.00    -0.296 N 
ATOM     37  H   GLY A   6       5.966  -4.609  17.527  0.00  0.00    +0.150 HD
ATOM     38  O   GLU A   5       5.302  -1.941  15.937  0.00  0.00    -0.273 OA
BRANCH  36  39
ATOM     39  CA  GLY A   6       6.268  -4.465  15.389  0.00  0.00    +0.163 C 
BRANCH  39  40
ATOM     40  C   GLY A   6       7.691  -4.991  15.328  0.00  0.00    +0.229 C 
ATOM     41  O   GLY A   6       8.518  -4.680  16.189  0.00  0.00    -0.286 OA
ENDBRANCH  39  40
ENDBRANCH  36  39
ENDBRANCH  34  35
BRANCH  34  42
ATOM     42  CB  GLU A   5       4.304  -3.524  18.923  0.00  0.00    +0.041 C 
BRANCH  42  43
ATOM     43  CG  GLU A   5       3.762  -3.271  20.312  0.00  0.00    +0.116 C 
BRANCH  43  44
ATOM     44  CD  GLU A   5       2.987  -4.463  20.840  0.00  0.00    +0.365 C 
ATOM     45  OE2 GLU A   5       3.316  -4.953  21.943  0.00  0.00    -0.246 OA
ATOM     46  OE1 GLU A   5       2.047  -4.911  20.148  0.00  0.00    -0.246 OA
ENDBRANCH  43  44
ENDBRANCH  42  43
ENDBRANCH  34  42
ENDBRANCH  32  34
ENDBRANCH  29  30
ENDBRANCH  26  29
ENDBRANCH   1  25
BRANCH   1  47
ATOM     47  CB  LEU A   3       3.251   4.670  21.455  0.00  0.00    +0.029 C 
BRANCH  47  48
ATOM     48  CG  LEU A   3       3.171   5.630  22.643  0.00  0.00    +0.002 C 
ATOM     49  CD2 LEU A   3       1.730   6.109  22.808  0.00  0.00    +0.000 C 
ATOM     50  CD1 LEU A   3       4.110   6.799  22.432  0.00  0.00    +0.000 C 
ENDBRANCH  47  48
ENDBRANCH   1  47
TORSDOF 22
REMARK  Name = ../refined-set-2016/1nvq/1nvq_pocket.pdb
REMARK  223 active torsions:
REMARK  status: ('A' for Active; 'I' for Inactive)
REMARK    1  A    between atoms: _1  and  _3
REMARK    2  A    between atoms: _3  and  _4
REMARK    3  A    between atoms: _3  and  _6
REMARK    4  A    between atoms: _6  and  _7
REMARK    5  A    between atoms: _7  and  _8
REMARK    6  A    between atoms: _13  and  _15
REMARK    7  A    between atoms: _15  and  _16
REMARK    8  A    between atoms: _15  and  _18
REMARK    9  A    between atoms: _18  and  _19
REMARK   10  A    between atoms: _22  and  _24
REMARK   11  A    between atoms: _24  and  _25
REMARK   12  A    between atoms: _24  and  _27
REMARK   13  A    between atoms: _27  and  _28
REMARK   14  A    between atoms: _31  and  _33
REMARK   15  A    between atoms: _33  and  _34
REMARK   16  A    between atoms: _36  and  _38
REMARK   17  A    between atoms: _38  and  _39
REMARK   18  A    between atoms: _38  and  _41
REMARK   19  A    between atoms: _41  and  _42
REMARK   20  A    between atoms: _42  and  _43
REMARK   21  A    between atoms: _46  and  _48
REMARK   22  A    between atoms: _48  and  _49
REMARK   23  A    between atoms: _51  and  _53
REMARK   24  A    between atoms: _53  and  _54
REMARK   25  A    between atoms: _53  and  _56
REMARK   26  A    between atoms: _56  and  _57
REMARK   27  A    between atoms: _62  and  _63
REMARK   28  A    between atoms: _65  and  _67
REMARK   29  A    between atoms: _67  and  _68
REMARK   30  A    between atoms: _70  and  _72
REMARK   31  A    between atoms: _72  and  _73
REMARK   32  A    between atoms: _72  and  _75
REMARK   33  A    between atoms: _75  and  _76
REMARK   34  A    between atoms: _76  and  _77
REMARK   35  A    between atoms: _80  and  _82
REMARK   36  A    between atoms: _82  and  _83
REMARK   37  A    between atoms: _82  and  _85
REMARK   38  A    between atoms: _88  and  _90
REMARK   39  A    between atoms: _90  and  _91
REMARK   40  A    between atoms: _90  and  _93
REMARK   41  A    between atoms: _93  and  _94
REMARK   42  A    between atoms: _94  and  _95
REMARK   43  A    between atoms: _100  and  _102
REMARK   44  A    between atoms: _102  and  _103
REMARK   45  A    between atoms: _102  and  _105
REMARK   46  A    between atoms: _105  and  _106
REMARK   47  A    between atoms: _109  and  _111
REMARK   48  A    between atoms: _111  and  _112
REMARK   49  A    between atoms: _115  and  _117
REMARK   50  A    between atoms: _117  and  _118
REMARK   51  A    between atoms: _121  and  _123
REMARK   52  A    between atoms: _123  and  _124
REMARK   53  A    between atoms: _123  and  _126
REMARK   54  A    between atoms: _129  and  _131
REMARK   55  A    between atoms: _131  and  _132
REMARK   56  A    between atoms: _135  and  _137
REMARK   57  A    between atoms: _137  and  _138
REMARK   58  A    between atoms: _137  and  _140
REMARK   59  A    between atoms: _143  and  _145
REMARK   60  A    between atoms: _145  and  _146
REMARK   61  A    between atoms: _145  and  _148
REMARK   62  A    between atoms: _148  and  _149
REMARK   63  A    between atoms: _149  and  _150
REMARK   64  A    between atoms: _150  and  _151
REMARK   65  A    between atoms: _151  and  _152
REMARK   66  A    between atoms: _156  and  _158
REMARK   67  A    between atoms: _158  and  _159
REMARK   68  A    between atoms: _158  and  _161
REMARK   69  A    between atoms: _161  and  _162
REMARK   70  A    between atoms: _165  and  _167
REMARK   71  A    between atoms: _167  and  _168
REMARK   72  A    between atoms: _167  and  _170
REMARK   73  A    between atoms: _173  and  _175
REMARK   74  A    between atoms: _175  and  _176
REMARK   75  A    between atoms: _175  and  _178
REMARK   76  A    between atoms: _178  and  _179
REMARK   77  A    between atoms: _179  and  _180
REMARK   78  A    between atoms: _183  and  _185
REMARK   79  A    between atoms: _185  and  _186
REMARK   80  A    between atoms: _185  and  _188
REMARK   81  A    between atoms: _188  and  _189
REMARK   82  A    between atoms: _194  and  _196
REMARK   83  A    between atoms: _196  and  _197
REMARK   84  A    between atoms: _196  and  _199
REMARK   85  A    between atoms: _202  and  _204
REMARK   86  A    between atoms: _204  and  _205
REMARK   87  A    between atoms: _204  and  _207
REMARK   88  A    between atoms: _210  and  _212
REMARK   89  A    between atoms: _212  and  _213
REMARK   90  A    between atoms: _212  and  _215
REMARK   91  A    between atoms: _215  and  _216
REMARK   92  A    between atoms: _216  and  _217
REMARK   93  A    between atoms: _217  and  _218
REMARK   94  A    between atoms: _218  and  _219
REMARK   95  A    between atoms: _223  and  _225
REMARK   96  A    between atoms: _225  and  _226
REMARK   97  A    between atoms: _225  and  _228
REMARK   98  A    between atoms: _228  and  _229
REMARK   99  A    between atoms: _235  and  _237
REMARK  100  A    between atoms: _237  and  _238
REMARK  101  A    between atoms: _237  and  _240
REMARK  102  A    between atoms: _240  and  _241
REMARK  103  A    between atoms: _246  and  _247
REMARK  104  A    between atoms: _249  and  _251
REMARK  105  A    between atoms: _251  and  _252
REMARK  106  A    between atoms: _251  and  _254
REMARK  107  A    between atoms: _254  and  _255
REMARK  108  A    between atoms: _258  and  _260
REMARK  109  A    between atoms: _260  and  _261
REMARK  110  A    between atoms: _260  and  _263
REMARK  111  A    between atoms: _263  and  _264
REMARK  112  A    between atoms: _270  and  _272
REMARK  113  A    between atoms: _272  and  _273
REMARK  114  A    between atoms: _272  and  _275
REMARK  115  A    between atoms: _275  and  _276
REMARK  116  A    between atoms: _279  and  _281
REMARK  117  A    between atoms: _281  and  _282
REMARK  118  A    between atoms: _281  and  _284
REMARK  119  A    between atoms: _284  and  _285
REMARK  120  A    between atoms: _285  and  _286
REMARK  121  A    between atoms: _289  and  _291
REMARK  122  A    between atoms: _291  and  _292
REMARK  123  A    between atoms: _291  and  _294
REMARK  124  A    between atoms: _294  and  _295
REMARK  125  A    between atoms: _300  and  _301
REMARK  126  A    between atoms: _303  and  _305
REMARK  127  A    between atoms: _305  and  _306
REMARK  128  A    between atoms: _305  and  _308
REMARK  129  A    between atoms: _310  and  _312
REMARK  130  A    between atoms: _312  and  _313
REMARK  131  A    between atoms: _312  and  _315
REMARK  132  A    between atoms: _315  and  _316
REMARK  133  A    between atoms: _318  and  _320
REMARK  134  A    between atoms: _320  and  _321
REMARK  135  A    between atoms: _323  and  _325
REMARK  136  A    between atoms: _325  and  _326
REMARK  137  A    between atoms: _328  and  _330
REMARK  138  A    between atoms: _330  and  _331
REMARK  139  A    between atoms: _330  and  _333
REMARK  140  A    between atoms: _333  and  _334
REMARK  141  A    between atoms: _334  and  _335
REMARK  142  A    between atoms: _338  and  _340
REMARK  143  A    between atoms: _340  and  _341
REMARK  144  A    between atoms: _340  and  _343
REMARK  145  A    between atoms: _343  and  _344
REMARK  146  A    between atoms: _347  and  _349
REMARK  147  A    between atoms: _349  and  _350
REMARK  148  A    between atoms: _349  and  _352
REMARK  149  A    between atoms: _352  and  _353
REMARK  150  A    between atoms: _359  and  _361
REMARK  151  A    between atoms: _361  and  _362
REMARK  152  A    between atoms: _361  and  _364
REMARK  153  A    between atoms: _364  and  _365
REMARK  154  A    between atoms: _368  and  _370
REMARK  155  A    between atoms: _370  and  _371
REMARK  156  A    between atoms: _370  and  _373
REMARK  157  A    between atoms: _373  and  _374
REMARK  158  A    between atoms: _379  and  _381
REMARK  159  A    between atoms: _381  and  _382
REMARK  160  A    between atoms: _381  and  _384
REMARK  161  A    between atoms: _384  and  _385
REMARK  162  A    between atoms: _388  and  _390
REMARK  163  A    between atoms: _390  and  _391
REMARK  164  A    between atoms: _390  and  _393
REMARK  165  A    between atoms: _393  and  _394
REMARK  166  A    between atoms: _394  and  _395
REMARK  167  A    between atoms: _395  and  _396
REMARK  168  A    between atoms: _396  and  _397
REMARK  169  A    between atoms: _402  and  _403
REMARK  170  A    between atoms: _408  and  _410
REMARK  171  A    between atoms: _410  and  _411
REMARK  172  A    between atoms: _410  and  _413
REMARK  173  A    between atoms: _413  and  _414
REMARK  174  A    between atoms: _414  and  _415
REMARK  175  A    between atoms: _418  and  _420
REMARK  176  A    between atoms: _420  and  _421
REMARK  177  A    between atoms: _420  and  _423
REMARK  178  A    between atoms: _423  and  _424
REMARK  179  A    between atoms: _429  and  _431
REMARK  180  A    between atoms: _431  and  _432
REMARK  181  A    between atoms: _431  and  _434
REMARK  182  A    between atoms: _434  and  _435
REMARK  183  A    between atoms: _438  and  _440
REMARK  184  A    between atoms: _440  and  _441
REMARK  185  A    between atoms: _440  and  _443
REMARK  186  A    between atoms: _443  and  _444
REMARK  187  A    between atoms: _447  and  _449
REMARK  188  A    between atoms: _449  and  _450
REMARK  189  A    between atoms: _449  and  _452
REMARK  190  A    between atoms: _452  and  _453
REMARK  191  A    between atoms: _456  and  _458
REMARK  192  A    between atoms: _458  and  _459
REMARK  193  A    between atoms: _458  and  _461
REMARK  194  A    between atoms: _461  and  _462
REMARK  195  A    between atoms: _465  and  _467
REMARK  196  A    between atoms: _467  and  _468
REMARK  197  A    between atoms: _467  and  _470
REMARK  198  A    between atoms: _470  and  _471
REMARK  199  A    between atoms: _471  and  _472
REMARK  200  A    between atoms: _472  and  _473
REMARK  201  A    between atoms: _473  and  _474
REMARK  202  A    between atoms: _478  and  _480
REMARK  203  A    between atoms: _480  and  _481
REMARK  204  A    between atoms: _480  and  _483
REMARK  205  A    between atoms: _483  and  _484
REMARK  206  A    between atoms: _487  and  _489
REMARK  207  A    between atoms: _489  and  _490
REMARK  208  A    between atoms: _489  and  _492
REMARK  209  A    between atoms: _492  and  _493
REMARK  210  A    between atoms: _495  and  _497
REMARK  211  A    between atoms: _497  and  _498
REMARK  212  A    between atoms: _497  and  _500
REMARK  213  A    between atoms: _500  and  _501
REMARK  214  A    between atoms: _504  and  _506
REMARK  215  A    between atoms: _506  and  _507
REMARK  216  A    between atoms: _506  and  _509
REMARK  217  A    between atoms: _509  and  _510
REMARK  218  A    between atoms: _516  and  _518
REMARK  219  A    between atoms: _518  and  _519
REMARK  220  A    between atoms: _521  and  _523
REMARK  221  A    between atoms: _523  and  _524
REMARK  222  A    between atoms: _523  and  _526
REMARK  223  A    between atoms: _526  and  _527
REMARK                            x       y       z     vdW  Elec       q    Type
REMARK                         _______ _______ _______ _____ _____    ______ ____
ROOT
ATOM      1  CA  VAL A   4       7.653   2.585  21.272  0.00  0.00    +0.149 C 
ENDROOT
BRANCH   1   4
ATOM      2  C   GLU A   3       8.751   0.441  20.889  0.00  0.00    +0.241 C 
ATOM      3  O   GLU A   3       9.872   0.900  21.111  0.00  0.00    -0.273 OA
ATOM      4  N   VAL A   4       7.644   1.172  20.929  0.00  0.00    -0.297 N 
ATOM      5  H   VAL A   4       6.736   0.717  20.707  0.00  0.00    +0.150 HD
BRANCH   2   6
ATOM      6  CA  GLU A   3       8.552  -1.030  20.543  0.00  0.00    +0.149 C 
BRANCH   6   8
ATOM      7  C   GLY A   2       9.728  -2.750  19.294  0.00  0.00    +0.243 C 
ATOM      8  N   GLU A   3       9.773  -1.678  20.080  0.00  0.00    -0.297 N 
ATOM      9  H   GLU A   3      10.696  -1.295  20.369  0.00  0.00    +0.150 HD
ATOM     10  O   GLY A   2       8.670  -3.246  18.898  0.00  0.00    -0.273 OA
BRANCH   7  11
ATOM     11  CA  GLY A   2      11.058  -3.350  18.883  0.00  0.00    +0.176 C 
BRANCH  11  13
ATOM     12  C   TYR A   1      12.019  -3.343  16.669  0.00  0.00    +0.239 C 
ATOM     13  N   GLY A   2      11.045  -3.729  17.484  0.00  0.00    -0.296 N 
ATOM     14  H   GLY A   2      10.265  -4.309  17.115  0.00  0.00    +0.150 HD
ATOM     15  O   TYR A   1      12.973  -2.656  17.037  0.00  0.00    -0.274 OA
BRANCH  12  16
ATOM     16  CA  TYR A   1      11.884  -3.794  15.219  0.00  0.00    +0.149 C 
BRANCH  16  17
ATOM     17  N   TYR A   1      10.866  -4.841  15.154  0.00  0.00    -0.238 NA
ATOM     18  H   TYR A   1      10.523  -5.259  16.042  0.00  0.00    +0.142 HD
ENDBRANCH  16  17
BRANCH  16  19
ATOM     19  CB  TYR A   1      11.479  -2.593  14.350  0.00  0.00    +0.053 C 
BRANCH  19  20
ATOM     20  CG  TYR A   1      10.257  -1.852  14.857  0.00  0.00    -0.020 A 
ATOM     21  CD2 TYR A   1      10.352  -0.954  15.924  0.00  0.00    -0.001 A 
ATOM     22  CE2 TYR A   1       9.222  -0.319  16.435  0.00  0.00    +0.036 A 
ATOM     23  CZ  TYR A   1       7.981  -0.581  15.875  0.00  0.00    +0.134 A 
ATOM     24  CE1 TYR A   1       7.862  -1.461  14.809  0.00  0.00    +0.036 A 
ATOM     25  CD1 TYR A   1       8.997  -2.091  14.307  0.00  0.00    -0.001 A 
BRANCH  23  26
ATOM     26  OH  TYR A   1       6.857   0.009  16.403  0.00  0.00    -0.506 OA
ATOM     27  HH  TYR A   1       6.243  -0.693  16.736  0.00  0.00    +0.292 HD
ENDBRANCH  23  26
ENDBRANCH  19  20
ENDBRANCH  16  19
ENDBRANCH  12  16
ENDBRANCH  11  13
ENDBRANCH   7  11
ENDBRANCH   6   8
BRANCH   6  28
ATOM     28  CB  GLU A   3       8.010  -1.763  21.775  0.00  0.00    +0.041 C 
BRANCH  28  29
ATOM     29  CG  GLU A   3       9.018  -1.867  22.917  0.00  0.00    +0.116 C 
BRANCH  29  30
ATOM     30  CD  GLU A   3       8.438  -2.515  24.164  0.00  0.00    +0.365 C 
ATOM     31  OE2 GLU A   3       8.471  -1.874  25.237  0.00  0.00    -0.246 OA
ATOM     32  OE1 GLU A   3       7.952  -3.664  24.074  0.00  0.00    -0.246 OA
ENDBRANCH  29  30
ENDBRANCH  28  29
ENDBRANCH   6  28
ENDBRANCH   2   6
ENDBRANCH   1   4
BRANCH   1  33
ATOM     33  C   VAL A   4       6.749   2.739  22.491  0.00  0.00    +0.241 C 
ATOM     34  N   GLN A   5       7.317   3.232  23.584  0.00  0.00    -0.297 N 
ATOM     35  H   GLN A   5       8.321   3.502  23.559  0.00  0.00    +0.150 HD
ATOM     36  O   VAL A   4       5.564   2.418  22.439  0.00  0.00    -0.273 OA
BRANCH  34  37
ATOM     37  CA  GLN A   5       6.564   3.402  24.816  0.00  0.00    +0.149 C 
BRANCH  37  38
ATOM     38  C   GLN A   5       6.376   4.856  25.215  0.00  0.00    +0.241 C 
ATOM     39  N   LEU A   6       5.252   5.126  25.871  0.00  0.00    -0.297 N 
ATOM     40  H   LEU A   6       4.558   4.366  26.018  0.00  0.00    +0.150 HD
ATOM     41  O   GLN A   5       7.220   5.710  24.935  0.00  0.00    -0.273 OA
BRANCH  39  42
ATOM     42  CA  LEU A   6       4.966   6.453  26.389  0.00  0.00    +0.149 C 
BRANCH  42  43
ATOM     43  C   LEU A   6       5.647   6.457  27.752  0.00  0.00    +0.241 C 
ATOM     44  O   LEU A   6       5.402   5.566  28.573  0.00  0.00    -0.273 OA
ATOM     45  N   ALA A   7       6.511   7.435  27.991  0.00  0.00    -0.298 N 
ATOM     46  H   ALA A   7       6.693   8.151  27.259  0.00  0.00    +0.150 HD
BRANCH  45  47
ATOM     47  CA  ALA A   7       7.207   7.516  29.267  0.00  0.00    +0.137 C 
ATOM     48  CB  ALA A   7       8.710   7.417  29.056  0.00  0.00    +0.030 C 
BRANCH  47  49
ATOM     49  C   ALA A   7       6.861   8.820  29.970  0.00  0.00    +0.227 C 
ATOM     50  O   ALA A   7       6.763   9.876  29.333  0.00  0.00    -0.286 OA
ENDBRANCH  47  49
ENDBRANCH  45  47
ENDBRANCH  42  43
BRANCH  42  51
ATOM     51  CB  LEU A   6       3.466   6.648  26.587  0.00  0.00    +0.029 C 
BRANCH  51  52
ATOM     52  CG  LEU A   6       3.086   7.847  27.464  0.00  0.00    +0.002 C 
ATOM     53  CD2 LEU A   6       1.588   7.831  27.723  0.00  0.00    +0.000 C 
ATOM     54  CD1 LEU A   6       3.497   9.147  26.777  0.00  0.00    +0.000 C 
ENDBRANCH  51  52
ENDBRANCH  42  51
ENDBRANCH  39  42
ENDBRANCH  37  38
BRANCH  37  55
ATOM     55  CB  GLN A   5       7.277   2.682  25.973  0.00  0.00    +0.039 C 
BRANCH  55  56
ATOM     56  CG  GLN A   5       7.357   1.166  25.860  0.00  0.00    +0.087 C 
BRANCH  56  57
ATOM     57  CD  GLN A   5       6.012   0.496  26.050  0.00  0.00    +0.219 C 
ATOM     58  OE1 GLN A   5       5.283   0.804  26.994  0.00  0.00    -0.275 OA
ATOM     59  NE2 GLN A   5       5.677  -0.431  25.160  0.00  0.00    -0.329 N 
ATOM     60 HE21 GLN A   5       4.768  -0.929  25.245  0.00  0.00    +0.145 HD
ATOM     61 HE22 GLN A   5       6.324  -0.659  24.378  0.00  0.00    +0.145 HD
ENDBRANCH  56  57
ENDBRANCH  55  56
ENDBRANCH  37  55
ENDBRANCH  34  37
ENDBRANCH   1  33
BRANCH   1  62
ATOM     62  CB  VAL A   4       7.096   3.461  20.127  0.00  0.00    +0.027 C 
ATOM     63  CG2 VAL A   4       7.035   4.916  20.577  0.00  0.00    +0.002 C 
ATOM     64  CG1 VAL A   4       7.978   3.329  18.894  0.00  0.00    +0.002 C 
ENDBRANCH   1  62
TORSDOF 26
REMARK  Name = ../refined-set-2016/1nvq/1nvq_pocket.pdb
REMARK  223 active torsions:
REMARK  status: ('A' for Active; 'I' for Inactive)
REMARK    1  A    between atoms: _1  and  _3
REMARK    2  A    between atoms: _3  and  _4
REMARK    3  A    between atoms: _3  and  _6
REMARK    4  A    between atoms: _6  and  _7
REMARK    5  A    between atoms: _7  and  _8
REMARK    6  A    between atoms: _13  and  _15
REMARK    7  A    between atoms: _15  and  _16
REMARK    8  A    between atoms: _15  and  _18
REMARK    9  A    between atoms: _18  and  _19
REMARK   10  A    between atoms: _22  and  _24
REMARK   11  A    between atoms: _24  and  _25
REMARK   12  A    between atoms: _24  and  _27
REMARK   13  A    between atoms: _27  and  _28
REMARK   14  A    between atoms: _31  and  _33
REMARK   15  A    between atoms: _33  and  _34
REMARK   16  A    between atoms: _36  and  _38
REMARK   17  A    between atoms: _38  and  _39
REMARK   18  A    between atoms: _38  and  _41
REMARK   19  A    between atoms: _41  and  _42
REMARK   20  A    between atoms: _42  and  _43
REMARK   21  A    between atoms: _46  and  _48
REMARK   22  A    between atoms: _48  and  _49
REMARK   23  A    between atoms: _51  and  _53
REMARK   24  A    between atoms: _53  and  _54
REMARK   25  A    between atoms: _53  and  _56
REMARK   26  A    between atoms: _56  and  _57
REMARK   27  A    between atoms: _62  and  _63
REMARK   28  A    between atoms: _65  and  _67
REMARK   29  A    between atoms: _67  and  _68
REMARK   30  A    between atoms: _70  and  _72
REMARK   31  A    between atoms: _72  and  _73
REMARK   32  A    between atoms: _72  and  _75
REMARK   33  A    between atoms: _75  and  _76
REMARK   34  A    between atoms: _76  and  _77
REMARK   35  A    between atoms: _80  and  _82
REMARK   36  A    between atoms: _82  and  _83
REMARK   37  A    between atoms: _82  and  _85
REMARK   38  A    between atoms: _88  and  _90
REMARK   39  A    between atoms: _90  and  _91
REMARK   40  A    between atoms: _90  and  _93
REMARK   41  A    between atoms: _93  and  _94
REMARK   42  A    between atoms: _94  and  _95
REMARK   43  A    between atoms: _100  and  _102
REMARK   44  A    between atoms: _102  and  _103
REMARK   45  A    between atoms: _102  and  _105
REMARK   46  A    between atoms: _105  and  _106
REMARK   47  A    between atoms: _109  and  _111
REMARK   48  A    between atoms: _111  and  _112
REMARK   49  A    between atoms: _115  and  _117
REMARK   50  A    between atoms: _117  and  _118
REMARK   51  A    between atoms: _121  and  _123
REMARK   52  A    between atoms: _123  and  _124
REMARK   53  A    between atoms: _123  and  _126
REMARK   54  A    between atoms: _129  and  _131
REMARK   55  A    between atoms: _131  and  _132
REMARK   56  A    between atoms: _135  and  _137
REMARK   57  A    between atoms: _137  and  _138
REMARK   58  A    between atoms: _137  and  _140
REMARK   59  A    between atoms: _143  and  _145
REMARK   60  A    between atoms: _145  and  _146
REMARK   61  A    between atoms: _145  and  _148
REMARK   62  A    between atoms: _148  and  _149
REMARK   63  A    between atoms: _149  and  _150
REMARK   64  A    between atoms: _150  and  _151
REMARK   65  A    between atoms: _151  and  _152
REMARK   66  A    between atoms: _156  and  _158
REMARK   67  A    between atoms: _158  and  _159
REMARK   68  A    between atoms: _158  and  _161
REMARK   69  A    between atoms: _161  and  _162
REMARK   70  A    between atoms: _165  and  _167
REMARK   71  A    between atoms: _167  and  _168
REMARK   72  A    between atoms: _167  and  _170
REMARK   73  A    between atoms: _173  and  _175
REMARK   74  A    between atoms: _175  and  _176
REMARK   75  A    between atoms: _175  and  _178
REMARK   76  A    between atoms: _178  and  _179
REMARK   77  A    between atoms: _179  and  _180
REMARK   78  A    between atoms: _183  and  _185
REMARK   79  A    between atoms: _185  and  _186
REMARK   80  A    between atoms: _185  and  _188
REMARK   81  A    between atoms: _188  and  _189
REMARK   82  A    between atoms: _194  and  _196
REMARK   83  A    between atoms: _196  and  _197
REMARK   84  A    between atoms: _196  and  _199
REMARK   85  A    between atoms: _202  and  _204
REMARK   86  A    between atoms: _204  and  _205
REMARK   87  A    between atoms: _204  and  _207
REMARK   88  A    between atoms: _210  and  _212
REMARK   89  A    between atoms: _212  and  _213
REMARK   90  A    between atoms: _212  and  _215
REMARK   91  A    between atoms: _215  and  _216
REMARK   92  A    between atoms: _216  and  _217
REMARK   93  A    between atoms: _217  and  _218
REMARK   94  A    between atoms: _218  and  _219
REMARK   95  A    between atoms: _223  and  _225
REMARK   96  A    between atoms: _225  and  _226
REMARK   97  A    between atoms: _225  and  _228
REMARK   98  A    between atoms: _228  and  _229
REMARK   99  A    between atoms: _235  and  _237
REMARK  100  A    between atoms: _237  and  _238
REMARK  101  A    between atoms: _237  and  _240
REMARK  102  A    between atoms: _240  and  _241
REMARK  103  A    between atoms: _246  and  _247
REMARK  104  A    between atoms: _249  and  _251
REMARK  105  A    between atoms: _251  and  _252
REMARK  106  A    between atoms: _251  and  _254
REMARK  107  A    between atoms: _254  and  _255
REMARK  108  A    between atoms: _258  and  _260
REMARK  109  A    between atoms: _260  and  _261
REMARK  110  A    between atoms: _260  and  _263
REMARK  111  A    between atoms: _263  and  _264
REMARK  112  A    between atoms: _270  and  _272
REMARK  113  A    between atoms: _272  and  _273
REMARK  114  A    between atoms: _272  and  _275
REMARK  115  A    between atoms: _275  and  _276
REMARK  116  A    between atoms: _279  and  _281
REMARK  117  A    between atoms: _281  and  _282
REMARK  118  A    between atoms: _281  and  _284
REMARK  119  A    between atoms: _284  and  _285
REMARK  120  A    between atoms: _285  and  _286
REMARK  121  A    between atoms: _289  and  _291
REMARK  122  A    between atoms: _291  and  _292
REMARK  123  A    between atoms: _291  and  _294
REMARK  124  A    between atoms: _294  and  _295
REMARK  125  A    between atoms: _300  and  _301
REMARK  126  A    between atoms: _303  and  _305
REMARK  127  A    between atoms: _305  and  _306
REMARK  128  A    between atoms: _305  and  _308
REMARK  129  A    between atoms: _310  and  _312
REMARK  130  A    between atoms: _312  and  _313
REMARK  131  A    between atoms: _312  and  _315
REMARK  132  A    between atoms: _315  and  _316
REMARK  133  A    between atoms: _318  and  _320
REMARK  134  A    between atoms: _320  and  _321
REMARK  135  A    between atoms: _323  and  _325
REMARK  136  A    between atoms: _325  and  _326
REMARK  137  A    between atoms: _328  and  _330
REMARK  138  A    between atoms: _330  and  _331
REMARK  139  A    between atoms: _330  and  _333
REMARK  140  A    between atoms: _333  and  _334
REMARK  141  A    between atoms: _334  and  _335
REMARK  142  A    between atoms: _338  and  _340
REMARK  143  A    between atoms: _340  and  _341
REMARK  144  A    between atoms: _340  and  _343
REMARK  145  A    between atoms: _343  and  _344
REMARK  146  A    between atoms: _347  and  _349
REMARK  147  A    between atoms: _349  and  _350
REMARK  148  A    between atoms: _349  and  _352
REMARK  149  A    between atoms: _352  and  _353
REMARK  150  A    between atoms: _359  and  _361
REMARK  151  A    between atoms: _361  and  _362
REMARK  152  A    between atoms: _361  and  _364
REMARK  153  A    between atoms: _364  and  _365
REMARK  154  A    between atoms: _368  and  _370
REMARK  155  A    between atoms: _370  and  _371
REMARK  156  A    between atoms: _370  and  _373
REMARK  157  A    between atoms: _373  and  _374
REMARK  158  A    between atoms: _379  and  _381
REMARK  159  A    between atoms: _381  and  _382
REMARK  160  A    between atoms: _381  and  _384
REMARK  161  A    between atoms: _384  and  _385
REMARK  162  A    between atoms: _388  and  _390
REMARK  163  A    between atoms: _390  and  _391
REMARK  164  A    between atoms: _390  and  _393
REMARK  165  A    between atoms: _393  and  _394
REMARK  166  A    between atoms: _394  and  _395
REMARK  167  A    between atoms: _395  and  _396
REMARK  168  A    between atoms: _396  and  _397
REMARK  169  A    between atoms: _402  and  _403
REMARK  170  A    between atoms: _408  and  _410
REMARK  171  A    between atoms: _410  and  _411
REMARK  172  A    between atoms: _410  and  _413
REMARK  173  A    between atoms: _413  and  _414
REMARK  174  A    between atoms: _414  and  _415
REMARK  175  A    between atoms: _418  and  _420
REMARK  176  A    between atoms: _420  and  _421
REMARK  177  A    between atoms: _420  and  _423
REMARK  178  A    between atoms: _423  and  _424
REMARK  179  A    between atoms: _429  and  _431
REMARK  180  A    between atoms: _431  and  _432
REMARK  181  A    between atoms: _431  and  _434
REMARK  182  A    between atoms: _434  and  _435
REMARK  183  A    between atoms: _438  and  _440
REMARK  184  A    between atoms: _440  and  _441
REMARK  185  A    between atoms: _440  and  _443
REMARK  186  A    between atoms: _443  and  _444
REMARK  187  A    between atoms: _447  and  _449
REMARK  188  A    between atoms: _449  and  _450
REMARK  189  A    between atoms: _449  and  _452
REMARK  190  A    between atoms: _452  and  _453
REMARK  191  A    between atoms: _456  and  _458
REMARK  192  A    between atoms: _458  and  _459
REMARK  193  A    between atoms: _458  and  _461
REMARK  194  A    between atoms: _461  and  _462
REMARK  195  A    between atoms: _465  and  _467
REMARK  196  A    between atoms: _467  and  _468
REMARK  197  A    between atoms: _467  and  _470
REMARK  198  A    between atoms: _470  and  _471
REMARK  199  A    between atoms: _471  and  _472
REMARK  200  A    between atoms: _472  and  _473
REMARK  201  A    between atoms: _473  and  _474
REMARK  202  A    between atoms: _478  and  _480
REMARK  203  A    between atoms: _480  and  _481
REMARK  204  A    between atoms: _480  and  _483
REMARK  205  A    between atoms: _483  and  _484
REMARK  206  A    between atoms: _487  and  _489
REMARK  207  A    between atoms: _489  and  _490
REMARK  208  A    between atoms: _489  and  _492
REMARK  209  A    between atoms: _492  and  _493
REMARK  210  A    between atoms: _495  and  _497
REMARK  211  A    between atoms: _497  and  _498
REMARK  212  A    between atoms: _497  and  _500
REMARK  213  A    between atoms: _500  and  _501
REMARK  214  A    between atoms: _504  and  _506
REMARK  215  A    between atoms: _506  and  _507
REMARK  216  A    between atoms: _506  and  _509
REMARK  217  A    between atoms: _509  and  _510
REMARK  218  A    between atoms: _516  and  _518
REMARK  219  A    between atoms: _518  and  _519
REMARK  220  A    between atoms: _521  and  _523
REMARK  221  A    between atoms: _523  and  _524
REMARK  222  A    between atoms: _523  and  _526
REMARK  223  A    between atoms: _526  and  _527
REMARK                            x       y       z     vdW  Elec       q    Type
REMARK                         _______ _______ _______ _____ _____    ______ ____
ROOT
ATOM      1  C   VAL A   4      10.847   4.941  23.040  0.00  0.00    +0.241 C 
ATOM      2  O   VAL A   4      10.073   4.000  23.205  0.00  0.00    -0.273 OA
ATOM      3  N   LYS A   5      11.711   4.991  22.033  0.00  0.00    -0.297 N 
ATOM      4  H   LYS A   5      12.323   5.823  21.909  0.00  0.00    +0.150 HD
ENDROOT
BRANCH   3   5
ATOM      5  CA  LYS A   5      11.796   3.877  21.107  0.00  0.00    +0.149 C 
BRANCH   5   6
ATOM      6  C   LYS A   5      12.826   2.931  21.708  0.00  0.00    +0.241 C 
ATOM      7  O   LYS A   5      13.947   3.332  22.026  0.00  0.00    -0.273 OA
ATOM      8  N   ILE A   6      12.427   1.679  21.880  0.00  0.00    -0.297 N 
ATOM      9  H   ILE A   6      11.465   1.412  21.589  0.00  0.00    +0.150 HD
BRANCH   8  10
ATOM     10  CA  ILE A   6      13.292   0.667  22.463  0.00  0.00    +0.149 C 
BRANCH  10  11
ATOM     11  C   ILE A   6      13.613  -0.364  21.397  0.00  0.00    +0.241 C 
ATOM     12  N   VAL A   7      14.897  -0.542  21.108  0.00  0.00    -0.298 N 
ATOM     13  H   VAL A   7      15.622   0.005  21.615  0.00  0.00    +0.150 HD
ATOM     14  O   ILE A   6      12.708  -0.989  20.845  0.00  0.00    -0.273 OA
BRANCH  12  15
ATOM     15  CA  VAL A   7      15.295  -1.497  20.086  0.00  0.00    +0.137 C 
BRANCH  15  16
ATOM     16  CB  VAL A   7      15.890  -0.770  18.854  0.00  0.00    +0.026 C 
ATOM     17  CG2 VAL A   7      17.226  -0.134  19.205  0.00  0.00    +0.002 C 
ATOM     18  CG1 VAL A   7      14.914   0.287  18.356  0.00  0.00    +0.002 C 
ENDBRANCH  15  16
BRANCH  15  19
ATOM     19  C   VAL A   7      16.293  -2.539  20.578  0.00  0.00    +0.227 C 
ATOM     20  O   VAL A   7      17.333  -2.207  21.153  0.00  0.00    -0.286 OA
ENDBRANCH  15  19
ENDBRANCH  12  15
ENDBRANCH  10  11
BRANCH  10  21
ATOM     21  CB  ILE A   6      12.587  -0.034  23.640  0.00  0.00    +0.027 C 
ATOM     22  CG2 ILE A   6      13.558  -0.965  24.353  0.00  0.00    +0.002 C 
BRANCH  21  23
ATOM     23  CG1 ILE A   6      12.042   1.014  24.611  0.00  0.00    +0.002 C 
ATOM     24  CD1 ILE A   6      11.233   0.431  25.750  0.00  0.00    +0.000 C 
ENDBRANCH  21  23
ENDBRANCH  10  21
ENDBRANCH   8  10
ENDBRANCH   5   6
BRANCH   5  25
ATOM     25  CB  LYS A   5      12.239   4.332  19.711  0.00  0.00    +0.029 C 
BRANCH  25  26
ATOM     26  CG  LYS A   5      12.113   3.222  18.672  0.00  0.00    +0.000 C 
BRANCH  26  27
ATOM     27  CD  LYS A   5      12.700   3.600  17.319  0.00  0.00    -0.024 C 
BRANCH  27  28
ATOM     28  CE  LYS A   5      12.509   2.462  16.322  0.00  0.00    -0.086 C 
BRANCH  28  29
ATOM     29  NZ  LYS A   5      13.280   2.662  15.065  0.00  0.00    +0.380 N 
ATOM     30  HZ1 LYS A   5      14.294   2.724  15.288  0.00  0.00    -0.089 HD
ATOM     31  HZ2 LYS A   5      12.971   3.543  14.606  0.00  0.00    -0.089 HD
ATOM     32  HZ3 LYS A   5      13.112   1.859  14.425  0.00  0.00    -0.089 HD
ENDBRANCH  28  29
ENDBRANCH  27  28
ENDBRANCH  26  27
ENDBRANCH  25  26
ENDBRANCH   5  25
ENDBRANCH   3   5
BRANCH   1  33
ATOM     33  CA  VAL A   4      10.839   6.127  23.985  0.00  0.00    +0.149 C 
BRANCH  33  35
ATOM     34  C   ALA A   3       9.495   8.093  23.620  0.00  0.00    +0.241 C 
ATOM     35  N   VAL A   4       9.557   6.808  23.938  0.00  0.00    -0.297 N 
ATOM     36  H   VAL A   4       8.684   6.285  24.155  0.00  0.00    +0.150 HD
ATOM     37  O   ALA A   3      10.493   8.757  23.360  0.00  0.00    -0.273 OA
BRANCH  34  38
ATOM     38  CA  ALA A   3       8.114   8.728  23.601  0.00  0.00    +0.149 C 
ATOM     39  CB  ALA A   3       7.620   8.874  22.164  0.00  0.00    +0.031 C 
BRANCH  38  42
ATOM     40  C   VAL A   2       7.937  10.203  25.518  0.00  0.00    +0.241 C 
ATOM     41  O   VAL A   2       7.527   9.292  26.236  0.00  0.00    -0.273 OA
ATOM     42  N   ALA A   3       8.231  10.035  24.234  0.00  0.00    -0.297 N 
ATOM     43  H   ALA A   3       8.550  10.849  23.671  0.00  0.00    +0.150 HD
BRANCH  40  44
ATOM     44  CA  VAL A   2       8.118  11.602  26.078  0.00  0.00    +0.148 C 
BRANCH  44  46
ATOM     45  C   ALA A   1       6.653  12.923  27.513  0.00  0.00    +0.238 C 
ATOM     46  N   VAL A   2       7.232  11.763  27.226  0.00  0.00    -0.297 N 
ATOM     47  H   VAL A   2       7.048  10.943  27.839  0.00  0.00    +0.150 HD
ATOM     48  O   ALA A   1       6.847  13.950  26.859  0.00  0.00    -0.274 OA
BRANCH  45  49
ATOM     49  CA  ALA A   1       5.727  12.931  28.725  0.00  0.00    +0.145 C 
ATOM     50  CB  ALA A   1       4.268  12.878  28.267  0.00  0.00    +0.028 C 
BRANCH  49  51
ATOM     51  N   ALA A   1       5.940  14.108  29.556  0.00  0.00    -0.238 NA
ATOM     52  H   ALA A   1       5.526  15.017  29.268  0.00  0.00    +0.142 HD
ENDBRANCH  49  51
ENDBRANCH  45  49
ENDBRANCH  44  46
BRANCH  44  53
ATOM     53  CB  VAL A   2       9.608  11.770  26.453  0.00  0.00    +0.027 C 
ATOM     54  CG2 VAL A   2      10.023  10.691  27.442  0.00  0.00    +0.002 C 
ATOM     55  CG1 VAL A   2       9.850  13.158  27.018  0.00  0.00    +0.002 C 
ENDBRANCH  44  53
ENDBRANCH  40  44
ENDBRANCH  38  42
ENDBRANCH  34  38
ENDBRANCH  33  35
BRANCH  33  56
ATOM     56  CB  VAL A   4      11.156   5.624  25.416  0.00  0.00    +0.027 C 
ATOM     57  CG2 VAL A   4      11.178   6.796  26.379  0.00  0.00    +0.002 C 
ATOM     58  CG1 VAL A   4      12.496   4.902  25.435  0.00  0.00    +0.002 C 
ENDBRANCH  33  56
ENDBRANCH   1  33
TORSDOF 24
REMARK  Name = ../refined-set-2016/1nvq/1nvq_pocket.pdb
REMARK  223 active torsions:
REMARK  status: ('A' for Active; 'I' for Inactive)
REMARK    1  A    between atoms: _1  and  _3
REMARK    2  A    between atoms: _3  and  _4
REMARK    3  A    between atoms: _3  and  _6
REMARK    4  A    between atoms: _6  and  _7
REMARK    5  A    between atoms: _7  and  _8
REMARK    6  A    between atoms: _13  and  _15
REMARK    7  A    between atoms: _15  and  _16
REMARK    8  A    between atoms: _15  and  _18
REMARK    9  A    between atoms: _18  and  _19
REMARK   10  A    between atoms: _22  and  _24
REMARK   11  A    between atoms: _24  and  _25
REMARK   12  A    between atoms: _24  and  _27
REMARK   13  A    between atoms: _27  and  _28
REMARK   14  A    between atoms: _31  and  _33
REMARK   15  A    between atoms: _33  and  _34
REMARK   16  A    between atoms: _36  and  _38
REMARK   17  A    between atoms: _38  and  _39
REMARK   18  A    between atoms: _38  and  _41
REMARK   19  A    between atoms: _41  and  _42
REMARK   20  A    between atoms: _42  and  _43
REMARK   21  A    between atoms: _46  and  _48
REMARK   22  A    between atoms: _48  and  _49
REMARK   23  A    between atoms: _51  and  _53
REMARK   24  A    between atoms: _53  and  _54
REMARK   25  A    between atoms: _53  and  _56
REMARK   26  A    between atoms: _56  and  _57
REMARK   27  A    between atoms: _62  and  _63
REMARK   28  A    between atoms: _65  and  _67
REMARK   29  A    between atoms: _67  and  _68
REMARK   30  A    between atoms: _70  and  _72
REMARK   31  A    between atoms: _72  and  _73
REMARK   32  A    between atoms: _72  and  _75
REMARK   33  A    between atoms: _75  and  _76
REMARK   34  A    between atoms: _76  and  _77
REMARK   35  A    between atoms: _80  and  _82
REMARK   36  A    between atoms: _82  and  _83
REMARK   37  A    between atoms: _82  and  _85
REMARK   38  A    between atoms: _88  and  _90
REMARK   39  A    between atoms: _90  and  _91
REMARK   40  A    between atoms: _90  and  _93
REMARK   41  A    between atoms: _93  and  _94
REMARK   42  A    between atoms: _94  and  _95
REMARK   43  A    between atoms: _100  and  _102
REMARK   44  A    between atoms: _102  and  _103
REMARK   45  A    between atoms: _102  and  _105
REMARK   46  A    between atoms: _105  and  _106
REMARK   47  A    between atoms: _109  and  _111
REMARK   48  A    between atoms: _111  and  _112
REMARK   49  A    between atoms: _115  and  _117
REMARK   50  A    between atoms: _117  and  _118
REMARK   51  A    between atoms: _121  and  _123
REMARK   52  A    between atoms: _123  and  _124
REMARK   53  A    between atoms: _123  and  _126
REMARK   54  A    between atoms: _129  and  _131
REMARK   55  A    between atoms: _131  and  _132
REMARK   56  A    between atoms: _135  and  _137
REMARK   57  A    between atoms: _137  and  _138
REMARK   58  A    between atoms: _137  and  _140
REMARK   59  A    between atoms: _143  and  _145
REMARK   60  A    between atoms: _145  and  _146
REMARK   61  A    between atoms: _145  and  _148
REMARK   62  A    between atoms: _148  and  _149
REMARK   63  A    between atoms: _149  and  _150
REMARK   64  A    between atoms: _150  and  _151
REMARK   65  A    between atoms: _151  and  _152
REMARK   66  A    between atoms: _156  and  _158
REMARK   67  A    between atoms: _158  and  _159
REMARK   68  A    between atoms: _158  and  _161
REMARK   69  A    between atoms: _161  and  _162
REMARK   70  A    between atoms: _165  and  _167
REMARK   71  A    between atoms: _167  and  _168
REMARK   72  A    between atoms: _167  and  _170
REMARK   73  A    between atoms: _173  and  _175
REMARK   74  A    between atoms: _175  and  _176
REMARK   75  A    between atoms: _175  and  _178
REMARK   76  A    between atoms: _178  and  _179
REMARK   77  A    between atoms: _179  and  _180
REMARK   78  A    between atoms: _183  and  _185
REMARK   79  A    between atoms: _185  and  _186
REMARK   80  A    between atoms: _185  and  _188
REMARK   81  A    between atoms: _188  and  _189
REMARK   82  A    between atoms: _194  and  _196
REMARK   83  A    between atoms: _196  and  _197
REMARK   84  A    between atoms: _196  and  _199
REMARK   85  A    between atoms: _202  and  _204
REMARK   86  A    between atoms: _204  and  _205
REMARK   87  A    between atoms: _204  and  _207
REMARK   88  A    between atoms: _210  and  _212
REMARK   89  A    between atoms: _212  and  _213
REMARK   90  A    between atoms: _212  and  _215
REMARK   91  A    between atoms: _215  and  _216
REMARK   92  A    between atoms: _216  and  _217
REMARK   93  A    between atoms: _217  and  _218
REMARK   94  A    between atoms: _218  and  _219
REMARK   95  A    between atoms: _223  and  _225
REMARK   96  A    between atoms: _225  and  _226
REMARK   97  A    between atoms: _225  and  _228
REMARK   98  A    between atoms: _228  and  _229
REMARK   99  A    between atoms: _235  and  _237
REMARK  100  A    between atoms: _237  and  _238
REMARK  101  A    between atoms: _237  and  _240
REMARK  102  A    between atoms: _240  and  _241
REMARK  103  A    between atoms: _246  and  _247
REMARK  104  A    between atoms: _249  and  _251
REMARK  105  A    between atoms: _251  and  _252
REMARK  106  A    between atoms: _251  and  _254
REMARK  107  A    between atoms: _254  and  _255
REMARK  108  A    between atoms: _258  and  _260
REMARK  109  A    between atoms: _260  and  _261
REMARK  110  A    between atoms: _260  and  _263
REMARK  111  A    between atoms: _263  and  _264
REMARK  112  A    between atoms: _270  and  _272
REMARK  113  A    between atoms: _272  and  _273
REMARK  114  A    between atoms: _272  and  _275
REMARK  115  A    between atoms: _275  and  _276
REMARK  116  A    between atoms: _279  and  _281
REMARK  117  A    between atoms: _281  and  _282
REMARK  118  A    between atoms: _281  and  _284
REMARK  119  A    between atoms: _284  and  _285
REMARK  120  A    between atoms: _285  and  _286
REMARK  121  A    between atoms: _289  and  _291
REMARK  122  A    between atoms: _291  and  _292
REMARK  123  A    between atoms: _291  and  _294
REMARK  124  A    between atoms: _294  and  _295
REMARK  125  A    between atoms: _300  and  _301
REMARK  126  A    between atoms: _303  and  _305
REMARK  127  A    between atoms: _305  and  _306
REMARK  128  A    between atoms: _305  and  _308
REMARK  129  A    between atoms: _310  and  _312
REMARK  130  A    between atoms: _312  and  _313
REMARK  131  A    between atoms: _312  and  _315
REMARK  132  A    between atoms: _315  and  _316
REMARK  133  A    between atoms: _318  and  _320
REMARK  134  A    between atoms: _320  and  _321
REMARK  135  A    between atoms: _323  and  _325
REMARK  136  A    between atoms: _325  and  _326
REMARK  137  A    between atoms: _328  and  _330
REMARK  138  A    between atoms: _330  and  _331
REMARK  139  A    between atoms: _330  and  _333
REMARK  140  A    between atoms: _333  and  _334
REMARK  141  A    between atoms: _334  and  _335
REMARK  142  A    between atoms: _338  and  _340
REMARK  143  A    between atoms: _340  and  _341
REMARK  144  A    between atoms: _340  and  _343
REMARK  145  A    between atoms: _343  and  _344
REMARK  146  A    between atoms: _347  and  _349
REMARK  147  A    between atoms: _349  and  _350
REMARK  148  A    between atoms: _349  and  _352
REMARK  149  A    between atoms: _352  and  _353
REMARK  150  A    between atoms: _359  and  _361
REMARK  151  A    between atoms: _361  and  _362
REMARK  152  A    between atoms: _361  and  _364
REMARK  153  A    between atoms: _364  and  _365
REMARK  154  A    between atoms: _368  and  _370
REMARK  155  A    between atoms: _370  and  _371
REMARK  156  A    between atoms: _370  and  _373
REMARK  157  A    between atoms: _373  and  _374
REMARK  158  A    between atoms: _379  and  _381
REMARK  159  A    between atoms: _381  and  _382
REMARK  160  A    between atoms: _381  and  _384
REMARK  161  A    between atoms: _384  and  _385
REMARK  162  A    between atoms: _388  and  _390
REMARK  163  A    between atoms: _390  and  _391
REMARK  164  A    between atoms: _390  and  _393
REMARK  165  A    between atoms: _393  and  _394
REMARK  166  A    between atoms: _394  and  _395
REMARK  167  A    between atoms: _395  and  _396
REMARK  168  A    between atoms: _396  and  _397
REMARK  169  A    between atoms: _402  and  _403
REMARK  170  A    between atoms: _408  and  _410
REMARK  171  A    between atoms: _410  and  _411
REMARK  172  A    between atoms: _410  and  _413
REMARK  173  A    between atoms: _413  and  _414
REMARK  174  A    between atoms: _414  and  _415
REMARK  175  A    between atoms: _418  and  _420
REMARK  176  A    between atoms: _420  and  _421
REMARK  177  A    between atoms: _420  and  _423
REMARK  178  A    between atoms: _423  and  _424
REMARK  179  A    between atoms: _429  and  _431
REMARK  180  A    between atoms: _431  and  _432
REMARK  181  A    between atoms: _431  and  _434
REMARK  182  A    between atoms: _434  and  _435
REMARK  183  A    between atoms: _438  and  _440
REMARK  184  A    between atoms: _440  and  _441
REMARK  185  A    between atoms: _440  and  _443
REMARK  186  A    between atoms: _443  and  _444
REMARK  187  A    between atoms: _447  and  _449
REMARK  188  A    between atoms: _449  and  _450
REMARK  189  A    between atoms: _449  and  _452
REMARK  190  A    between atoms: _452  and  _453
REMARK  191  A    between atoms: _456  and  _458
REMARK  192  A    between atoms: _458  and  _459
REMARK  193  A    between atoms: _458  and  _461
REMARK  194  A    between atoms: _461  and  _462
REMARK  195  A    between atoms: _465  and  _467
REMARK  196  A    between atoms: _467  and  _468
REMARK  197  A    between atoms: _467  and  _470
REMARK  198  A    between atoms: _470  and  _471
REMARK  199  A    between atoms: _471  and  _472
REMARK  200  A    between atoms: _472  and  _473
REMARK  201  A    between atoms: _473  and  _474
REMARK  202  A    between atoms: _478  and  _480
REMARK  203  A    between atoms: _480  and  _481
REMARK  204  A    between atoms: _480  and  _483
REMARK  205  A    between atoms: _483  and  _484
REMARK  206  A    between atoms: _487  and  _489
REMARK  207  A    between atoms: _489  and  _490
REMARK  208  A    between atoms: _489  and  _492
REMARK  209  A    between atoms: _492  and  _493
REMARK  210  A    between atoms: _495  and  _497
REMARK  211  A    between atoms: _497  and  _498
REMARK  212  A    between atoms: _497  and  _500
REMARK  213  A    between atoms: _500  and  _501
REMARK  214  A    between atoms: _504  and  _506
REMARK  215  A    between atoms: _506  and  _507
REMARK  216  A    between atoms: _506  and  _509
REMARK  217  A    between atoms: _509  and  _510
REMARK  218  A    between atoms: _516  and  _518
REMARK  219  A    between atoms: _518  and  _519
REMARK  220  A    between atoms: _521  and  _523
REMARK  221  A    between atoms: _523  and  _524
REMARK  222  A    between atoms: _523  and  _526
REMARK  223  A    between atoms: _526  and  _527
REMARK                            x       y       z     vdW  Elec       q    Type
REMARK                         _______ _______ _______ _____ _____    ______ ____
ROOT
ATOM      1  CA  GLU A   1      18.557   6.825  12.634  0.00  0.00    +0.134 C 
ENDROOT
BRANCH   1   2
ATOM      2  N   GLU A   1      19.760   6.143  12.173  0.00  0.00    -0.239 NA
ATOM      3  H   GLU A   1      19.820   5.108  12.256  0.00  0.00    +0.142 HD
ENDBRANCH   1   2
BRANCH   1   4
ATOM      4  C   GLU A   1      18.922   7.883  13.672  0.00  0.00    +0.224 C 
ATOM      5  O   GLU A   1      18.414   9.002  13.638  0.00  0.00    -0.287 OA
ENDBRANCH   1   4
BRANCH   1   6
ATOM      6  CB  GLU A   1      17.579   5.817  13.245  0.00  0.00    +0.037 C 
BRANCH   6   7
ATOM      7  CG  GLU A   1      16.139   6.314  13.320  0.00  0.00    +0.116 C 
BRANCH   7   8
ATOM      8  CD  GLU A   1      15.180   5.290  13.919  0.00  0.00    +0.365 C 
ATOM      9  OE2 GLU A   1      14.200   5.702  14.575  0.00  0.00    -0.246 OA
ATOM     10  OE1 GLU A   1      15.390   4.075  13.721  0.00  0.00    -0.246 OA
ENDBRANCH   7   8
ENDBRANCH   6   7
ENDBRANCH   1   6
TORSDOF 5
REMARK  Name = ../refined-set-2016/1nvq/1nvq_pocket.pdb
REMARK  223 active torsions:
REMARK  status: ('A' for Active; 'I' for Inactive)
REMARK    1  A    between atoms: _1  and  _3
REMARK    2  A    between atoms: _3  and  _4
REMARK    3  A    between atoms: _3  and  _6
REMARK    4  A    between atoms: _6  and  _7
REMARK    5  A    between atoms: _7  and  _8
REMARK    6  A    between atoms: _13  and  _15
REMARK    7  A    between atoms: _15  and  _16
REMARK    8  A    between atoms: _15  and  _18
REMARK    9  A    between atoms: _18  and  _19
REMARK   10  A    between atoms: _22  and  _24
REMARK   11  A    between atoms: _24  and  _25
REMARK   12  A    between atoms: _24  and  _27
REMARK   13  A    between atoms: _27  and  _28
REMARK   14  A    between atoms: _31  and  _33
REMARK   15  A    between atoms: _33  and  _34
REMARK   16  A    between atoms: _36  and  _38
REMARK   17  A    between atoms: _38  and  _39
REMARK   18  A    between atoms: _38  and  _41
REMARK   19  A    between atoms: _41  and  _42
REMARK   20  A    between atoms: _42  and  _43
REMARK   21  A    between atoms: _46  and  _48
REMARK   22  A    between atoms: _48  and  _49
REMARK   23  A    between atoms: _51  and  _53
REMARK   24  A    between atoms: _53  and  _54
REMARK   25  A    between atoms: _53  and  _56
REMARK   26  A    between atoms: _56  and  _57
REMARK   27  A    between atoms: _62  and  _63
REMARK   28  A    between atoms: _65  and  _67
REMARK   29  A    between atoms: _67  and  _68
REMARK   30  A    between atoms: _70  and  _72
REMARK   31  A    between atoms: _72  and  _73
REMARK   32  A    between atoms: _72  and  _75
REMARK   33  A    between atoms: _75  and  _76
REMARK   34  A    between atoms: _76  and  _77
REMARK   35  A    between atoms: _80  and  _82
REMARK   36  A    between atoms: _82  and  _83
REMARK   37  A    between atoms: _82  and  _85
REMARK   38  A    between atoms: _88  and  _90
REMARK   39  A    between atoms: _90  and  _91
REMARK   40  A    between atoms: _90  and  _93
REMARK   41  A    between atoms: _93  and  _94
REMARK   42  A    between atoms: _94  and  _95
REMARK   43  A    between atoms: _100  and  _102
REMARK   44  A    between atoms: _102  and  _103
REMARK   45  A    between atoms: _102  and  _105
REMARK   46  A    between atoms: _105  and  _106
REMARK   47  A    between atoms: _109  and  _111
REMARK   48  A    between atoms: _111  and  _112
REMARK   49  A    between atoms: _115  and  _117
REMARK   50  A    between atoms: _117  and  _118
REMARK   51  A    between atoms: _121  and  _123
REMARK   52  A    between atoms: _123  and  _124
REMARK   53  A    between atoms: _123  and  _126
REMARK   54  A    between atoms: _129  and  _131
REMARK   55  A    between atoms: _131  and  _132
REMARK   56  A    between atoms: _135  and  _137
REMARK   57  A    between atoms: _137  and  _138
REMARK   58  A    between atoms: _137  and  _140
REMARK   59  A    between atoms: _143  and  _145
REMARK   60  A    between atoms: _145  and  _146
REMARK   61  A    between atoms: _145  and  _148
REMARK   62  A    between atoms: _148  and  _149
REMARK   63  A    between atoms: _149  and  _150
REMARK   64  A    between atoms: _150  and  _151
REMARK   65  A    between atoms: _151  and  _152
REMARK   66  A    between atoms: _156  and  _158
REMARK   67  A    between atoms: _158  and  _159
REMARK   68  A    between atoms: _158  and  _161
REMARK   69  A    between atoms: _161  and  _162
REMARK   70  A    between atoms: _165  and  _167
REMARK   71  A    between atoms: _167  and  _168
REMARK   72  A    between atoms: _167  and  _170
REMARK   73  A    between atoms: _173  and  _175
REMARK   74  A    between atoms: _175  and  _176
REMARK   75  A    between atoms: _175  and  _178
REMARK   76  A    between atoms: _178  and  _179
REMARK   77  A    between atoms: _179  and  _180
REMARK   78  A    between atoms: _183  and  _185
REMARK   79  A    between atoms: _185  and  _186
REMARK   80  A    between atoms: _185  and  _188
REMARK   81  A    between atoms: _188  and  _189
REMARK   82  A    between atoms: _194  and  _196
REMARK   83  A    between atoms: _196  and  _197
REMARK   84  A    between atoms: _196  and  _199
REMARK   85  A    between atoms: _202  and  _204
REMARK   86  A    between atoms: _204  and  _205
REMARK   87  A    between atoms: _204  and  _207
REMARK   88  A    between atoms: _210  and  _212
REMARK   89  A    between atoms: _212  and  _213
REMARK   90  A    between atoms: _212  and  _215
REMARK   91  A    between atoms: _215  and  _216
REMARK   92  A    between atoms: _216  and  _217
REMARK   93  A    between atoms: _217  and  _218
REMARK   94  A    between atoms: _218  and  _219
REMARK   95  A    between atoms: _223  and  _225
REMARK   96  A    between atoms: _225  and  _226
REMARK   97  A    between atoms: _225  and  _228
REMARK   98  A    between atoms: _228  and  _229
REMARK   99  A    between atoms: _235  and  _237
REMARK  100  A    between atoms: _237  and  _238
REMARK  101  A    between atoms: _237  and  _240
REMARK  102  A    between atoms: _240  and  _241
REMARK  103  A    between atoms: _246  and  _247
REMARK  104  A    between atoms: _249  and  _251
REMARK  105  A    between atoms: _251  and  _252
REMARK  106  A    between atoms: _251  and  _254
REMARK  107  A    between atoms: _254  and  _255
REMARK  108  A    between atoms: _258  and  _260
REMARK  109  A    between atoms: _260  and  _261
REMARK  110  A    between atoms: _260  and  _263
REMARK  111  A    between atoms: _263  and  _264
REMARK  112  A    between atoms: _270  and  _272
REMARK  113  A    between atoms: _272  and  _273
REMARK  114  A    between atoms: _272  and  _275
REMARK  115  A    between atoms: _275  and  _276
REMARK  116  A    between atoms: _279  and  _281
REMARK  117  A    between atoms: _281  and  _282
REMARK  118  A    between atoms: _281  and  _284
REMARK  119  A    between atoms: _284  and  _285
REMARK  120  A    between atoms: _285  and  _286
REMARK  121  A    between atoms: _289  and  _291
REMARK  122  A    between atoms: _291  and  _292
REMARK  123  A    between atoms: _291  and  _294
REMARK  124  A    between atoms: _294  and  _295
REMARK  125  A    between atoms: _300  and  _301
REMARK  126  A    between atoms: _303  and  _305
REMARK  127  A    between atoms: _305  and  _306
REMARK  128  A    between atoms: _305  and  _308
REMARK  129  A    between atoms: _310  and  _312
REMARK  130  A    between atoms: _312  and  _313
REMARK  131  A    between atoms: _312  and  _315
REMARK  132  A    between atoms: _315  and  _316
REMARK  133  A    between atoms: _318  and  _320
REMARK  134  A    between atoms: _320  and  _321
REMARK  135  A    between atoms: _323  and  _325
REMARK  136  A    between atoms: _325  and  _326
REMARK  137  A    between atoms: _328  and  _330
REMARK  138  A    between atoms: _330  and  _331
REMARK  139  A    between atoms: _330  and  _333
REMARK  140  A    between atoms: _333  and  _334
REMARK  141  A    between atoms: _334  and  _335
REMARK  142  A    between atoms: _338  and  _340
REMARK  143  A    between atoms: _340  and  _341
REMARK  144  A    between atoms: _340  and  _343
REMARK  145  A    between atoms: _343  and  _344
REMARK  146  A    between atoms: _347  and  _349
REMARK  147  A    between atoms: _349  and  _350
REMARK  148  A    between atoms: _349  and  _352
REMARK  149  A    between atoms: _352  and  _353
REMARK  150  A    between atoms: _359  and  _361
REMARK  151  A    between atoms: _361  and  _362
REMARK  152  A    between atoms: _361  and  _364
REMARK  153  A    between atoms: _364  and  _365
REMARK  154  A    between atoms: _368  and  _370
REMARK  155  A    between atoms: _370  and  _371
REMARK  156  A    between atoms: _370  and  _373
REMARK  157  A    between atoms: _373  and  _374
REMARK  158  A    between atoms: _379  and  _381
REMARK  159  A    between atoms: _381  and  _382
REMARK  160  A    between atoms: _381  and  _384
REMARK  161  A    between atoms: _384  and  _385
REMARK  162  A    between atoms: _388  and  _390
REMARK  163  A    between atoms: _390  and  _391
REMARK  164  A    between atoms: _390  and  _393
REMARK  165  A    between atoms: _393  and  _394
REMARK  166  A    between atoms: _394  and  _395
REMARK  167  A    between atoms: _395  and  _396
REMARK  168  A    between atoms: _396  and  _397
REMARK  169  A    between atoms: _402  and  _403
REMARK  170  A    between atoms: _408  and  _410
REMARK  171  A    between atoms: _410  and  _411
REMARK  172  A    between atoms: _410  and  _413
REMARK  173  A    between atoms: _413  and  _414
REMARK  174  A    between atoms: _414  and  _415
REMARK  175  A    between atoms: _418  and  _420
REMARK  176  A    between atoms: _420  and  _421
REMARK  177  A    between atoms: _420  and  _423
REMARK  178  A    between atoms: _423  and  _424
REMARK  179  A    between atoms: _429  and  _431
REMARK  180  A    between atoms: _431  and  _432
REMARK  181  A    between atoms: _431  and  _434
REMARK  182  A    between atoms: _434  and  _435
REMARK  183  A    between atoms: _438  and  _440
REMARK  184  A    between atoms: _440  and  _441
REMARK  185  A    between atoms: _440  and  _443
REMARK  186  A    between atoms: _443  and  _444
REMARK  187  A    between atoms: _447  and  _449
REMARK  188  A    between atoms: _449  and  _450
REMARK  189  A    between atoms: _449  and  _452
REMARK  190  A    between atoms: _452  and  _453
REMARK  191  A    between atoms: _456  and  _458
REMARK  192  A    between atoms: _458  and  _459
REMARK  193  A    between atoms: _458  and  _461
REMARK  194  A    between atoms: _461  and  _462
REMARK  195  A    between atoms: _465  and  _467
REMARK  196  A    between atoms: _467  and  _468
REMARK  197  A    between atoms: _467  and  _470
REMARK  198  A    between atoms: _470  and  _471
REMARK  199  A    between atoms: _471  and  _472
REMARK  200  A    between atoms: _472  and  _473
REMARK  201  A    between atoms: _473  and  _474
REMARK  202  A    between atoms: _478  and  _480
REMARK  203  A    between atoms: _480  and  _481
REMARK  204  A    between atoms: _480  and  _483
REMARK  205  A    between atoms: _483  and  _484
REMARK  206  A    between atoms: _487  and  _489
REMARK  207  A    between atoms: _489  and  _490
REMARK  208  A    between atoms: _489  and  _492
REMARK  209  A    between atoms: _492  and  _493
REMARK  210  A    between atoms: _495  and  _497
REMARK  211  A    between atoms: _497  and  _498
REMARK  212  A    between atoms: _497  and  _500
REMARK  213  A    between atoms: _500  and  _501
REMARK  214  A    between atoms: _504  and  _506
REMARK  215  A    between atoms: _506  and  _507
REMARK  216  A    between atoms: _506  and  _509
REMARK  217  A    between atoms: _509  and  _510
REMARK  218  A    between atoms: _516  and  _518
REMARK  219  A    between atoms: _518  and  _519
REMARK  220  A    between atoms: _521  and  _523
REMARK  221  A    between atoms: _523  and  _524
REMARK  222  A    between atoms: _523  and  _526
REMARK  223  A    between atoms: _526  and  _527
REMARK                            x       y       z     vdW  Elec       q    Type
REMARK                         _______ _______ _______ _____ _____    ______ ____
ROOT
ATOM      1  CB  ASN A   1      17.101  11.467  15.461  0.00  0.00    +0.110 C 
ENDROOT
BRANCH   1   2
ATOM      2  CG  ASN A   1      15.715  10.924  15.170  0.00  0.00    +0.221 C 
ATOM      3  OD1 ASN A   1      14.726  11.647  15.274  0.00  0.00    -0.275 OA
ATOM      4  ND2 ASN A   1      15.637   9.656  14.794  0.00  0.00    -0.329 N 
ATOM      5 HD21 ASN A   1      16.501   9.082  14.720  0.00  0.00    +0.145 HD
ATOM      6 HD22 ASN A   1      14.712   9.235  14.573  0.00  0.00    +0.145 HD
ENDBRANCH   1   2
BRANCH   1   7
ATOM      7  CA  ASN A   1      17.553  12.500  14.425  0.00  0.00    +0.142 C 
BRANCH   7   8
ATOM      8  N   ASN A   1      18.391  11.863  13.411  0.00  0.00    -0.239 NA
ATOM      9  H   ASN A   1      18.606  10.848  13.487  0.00  0.00    +0.142 HD
ENDBRANCH   7   8
BRANCH   7  10
ATOM     10  C   ASN A   1      18.232  13.674  15.127  0.00  0.00    +0.225 C 
ATOM     11  O   ASN A   1      17.573  14.643  15.509  0.00  0.00    -0.287 OA
ENDBRANCH   7  10
ENDBRANCH   1   7
TORSDOF 4
REMARK  Name = ../refined-set-2016/1nvq/1nvq_pocket.pdb
REMARK  223 active torsions:
REMARK  status: ('A' for Active; 'I' for Inactive)
REMARK    1  A    between atoms: _1  and  _3
REMARK    2  A    between atoms: _3  and  _4
REMARK    3  A    between atoms: _3  and  _6
REMARK    4  A    between atoms: _6  and  _7
REMARK    5  A    between atoms: _7  and  _8
REMARK    6  A    between atoms: _13  and  _15
REMARK    7  A    between atoms: _15  and  _16
REMARK    8  A    between atoms: _15  and  _18
REMARK    9  A    between atoms: _18  and  _19
REMARK   10  A    between atoms: _22  and  _24
REMARK   11  A    between atoms: _24  and  _25
REMARK   12  A    between atoms: _24  and  _27
REMARK   13  A    between atoms: _27  and  _28
REMARK   14  A    between atoms: _31  and  _33
REMARK   15  A    between atoms: _33  and  _34
REMARK   16  A    between atoms: _36  and  _38
REMARK   17  A    between atoms: _38  and  _39
REMARK   18  A    between atoms: _38  and  _41
REMARK   19  A    between atoms: _41  and  _42
REMARK   20  A    between atoms: _42  and  _43
REMARK   21  A    between atoms: _46  and  _48
REMARK   22  A    between atoms: _48  and  _49
REMARK   23  A    between atoms: _51  and  _53
REMARK   24  A    between atoms: _53  and  _54
REMARK   25  A    between atoms: _53  and  _56
REMARK   26  A    between atoms: _56  and  _57
REMARK   27  A    between atoms: _62  and  _63
REMARK   28  A    between atoms: _65  and  _67
REMARK   29  A    between atoms: _67  and  _68
REMARK   30  A    between atoms: _70  and  _72
REMARK   31  A    between atoms: _72  and  _73
REMARK   32  A    between atoms: _72  and  _75
REMARK   33  A    between atoms: _75  and  _76
REMARK   34  A    between atoms: _76  and  _77
REMARK   35  A    between atoms: _80  and  _82
REMARK   36  A    between atoms: _82  and  _83
REMARK   37  A    between atoms: _82  and  _85
REMARK   38  A    between atoms: _88  and  _90
REMARK   39  A    between atoms: _90  and  _91
REMARK   40  A    between atoms: _90  and  _93
REMARK   41  A    between atoms: _93  and  _94
REMARK   42  A    between atoms: _94  and  _95
REMARK   43  A    between atoms: _100  and  _102
REMARK   44  A    between atoms: _102  and  _103
REMARK   45  A    between atoms: _102  and  _105
REMARK   46  A    between atoms: _105  and  _106
REMARK   47  A    between atoms: _109  and  _111
REMARK   48  A    between atoms: _111  and  _112
REMARK   49  A    between atoms: _115  and  _117
REMARK   50  A    between atoms: _117  and  _118
REMARK   51  A    between atoms: _121  and  _123
REMARK   52  A    between atoms: _123  and  _124
REMARK   53  A    between atoms: _123  and  _126
REMARK   54  A    between atoms: _129  and  _131
REMARK   55  A    between atoms: _131  and  _132
REMARK   56  A    between atoms: _135  and  _137
REMARK   57  A    between atoms: _137  and  _138
REMARK   58  A    between atoms: _137  and  _140
REMARK   59  A    between atoms: _143  and  _145
REMARK   60  A    between atoms: _145  and  _146
REMARK   61  A    between atoms: _145  and  _148
REMARK   62  A    between atoms: _148  and  _149
REMARK   63  A    between atoms: _149  and  _150
REMARK   64  A    between atoms: _150  and  _151
REMARK   65  A    between atoms: _151  and  _152
REMARK   66  A    between atoms: _156  and  _158
REMARK   67  A    between atoms: _158  and  _159
REMARK   68  A    between atoms: _158  and  _161
REMARK   69  A    between atoms: _161  and  _162
REMARK   70  A    between atoms: _165  and  _167
REMARK   71  A    between atoms: _167  and  _168
REMARK   72  A    between atoms: _167  and  _170
REMARK   73  A    between atoms: _173  and  _175
REMARK   74  A    between atoms: _175  and  _176
REMARK   75  A    between atoms: _175  and  _178
REMARK   76  A    between atoms: _178  and  _179
REMARK   77  A    between atoms: _179  and  _180
REMARK   78  A    between atoms: _183  and  _185
REMARK   79  A    between atoms: _185  and  _186
REMARK   80  A    between atoms: _185  and  _188
REMARK   81  A    between atoms: _188  and  _189
REMARK   82  A    between atoms: _194  and  _196
REMARK   83  A    between atoms: _196  and  _197
REMARK   84  A    between atoms: _196  and  _199
REMARK   85  A    between atoms: _202  and  _204
REMARK   86  A    between atoms: _204  and  _205
REMARK   87  A    between atoms: _204  and  _207
REMARK   88  A    between atoms: _210  and  _212
REMARK   89  A    between atoms: _212  and  _213
REMARK   90  A    between atoms: _212  and  _215
REMARK   91  A    between atoms: _215  and  _216
REMARK   92  A    between atoms: _216  and  _217
REMARK   93  A    between atoms: _217  and  _218
REMARK   94  A    between atoms: _218  and  _219
REMARK   95  A    between atoms: _223  and  _225
REMARK   96  A    between atoms: _225  and  _226
REMARK   97  A    between atoms: _225  and  _228
REMARK   98  A    between atoms: _228  and  _229
REMARK   99  A    between atoms: _235  and  _237
REMARK  100  A    between atoms: _237  and  _238
REMARK  101  A    between atoms: _237  and  _240
REMARK  102  A    between atoms: _240  and  _241
REMARK  103  A    between atoms: _246  and  _247
REMARK  104  A    between atoms: _249  and  _251
REMARK  105  A    between atoms: _251  and  _252
REMARK  106  A    between atoms: _251  and  _254
REMARK  107  A    between atoms: _254  and  _255
REMARK  108  A    between atoms: _258  and  _260
REMARK  109  A    between atoms: _260  and  _261
REMARK  110  A    between atoms: _260  and  _263
REMARK  111  A    between atoms: _263  and  _264
REMARK  112  A    between atoms: _270  and  _272
REMARK  113  A    between atoms: _272  and  _273
REMARK  114  A    between atoms: _272  and  _275
REMARK  115  A    between atoms: _275  and  _276
REMARK  116  A    between atoms: _279  and  _281
REMARK  117  A    between atoms: _281  and  _282
REMARK  118  A    between atoms: _281  and  _284
REMARK  119  A    between atoms: _284  and  _285
REMARK  120  A    between atoms: _285  and  _286
REMARK  121  A    between atoms: _289  and  _291
REMARK  122  A    between atoms: _291  and  _292
REMARK  123  A    between atoms: _291  and  _294
REMARK  124  A    between atoms: _294  and  _295
REMARK  125  A    between atoms: _300  and  _301
REMARK  126  A    between atoms: _303  and  _305
REMARK  127  A    between atoms: _305  and  _306
REMARK  128  A    between atoms: _305  and  _308
REMARK  129  A    between atoms: _310  and  _312
REMARK  130  A    between atoms: _312  and  _313
REMARK  131  A    between atoms: _312  and  _315
REMARK  132  A    between atoms: _315  and  _316
REMARK  133  A    between atoms: _318  and  _320
REMARK  134  A    between atoms: _320  and  _321
REMARK  135  A    between atoms: _323  and  _325
REMARK  136  A    between atoms: _325  and  _326
REMARK  137  A    between atoms: _328  and  _330
REMARK  138  A    between atoms: _330  and  _331
REMARK  139  A    between atoms: _330  and  _333
REMARK  140  A    between atoms: _333  and  _334
REMARK  141  A    between atoms: _334  and  _335
REMARK  142  A    between atoms: _338  and  _340
REMARK  143  A    between atoms: _340  and  _341
REMARK  144  A    between atoms: _340  and  _343
REMARK  145  A    between atoms: _343  and  _344
REMARK  146  A    between atoms: _347  and  _349
REMARK  147  A    between atoms: _349  and  _350
REMARK  148  A    between atoms: _349  and  _352
REMARK  149  A    between atoms: _352  and  _353
REMARK  150  A    between atoms: _359  and  _361
REMARK  151  A    between atoms: _361  and  _362
REMARK  152  A    between atoms: _361  and  _364
REMARK  153  A    between atoms: _364  and  _365
REMARK  154  A    between atoms: _368  and  _370
REMARK  155  A    between atoms: _370  and  _371
REMARK  156  A    between atoms: _370  and  _373
REMARK  157  A    between atoms: _373  and  _374
REMARK  158  A    between atoms: _379  and  _381
REMARK  159  A    between atoms: _381  and  _382
REMARK  160  A    between atoms: _381  and  _384
REMARK  161  A    between atoms: _384  and  _385
REMARK  162  A    between atoms: _388  and  _390
REMARK  163  A    between atoms: _390  and  _391
REMARK  164  A    between atoms: _390  and  _393
REMARK  165  A    between atoms: _393  and  _394
REMARK  166  A    between atoms: _394  and  _395
REMARK  167  A    between atoms: _395  and  _396
REMARK  168  A    between atoms: _396  and  _397
REMARK  169  A    between atoms: _402  and  _403
REMARK  170  A    between atoms: _408  and  _410
REMARK  171  A    between atoms: _410  and  _411
REMARK  172  A    between atoms: _410  and  _413
REMARK  173  A    between atoms: _413  and  _414
REMARK  174  A    between atoms: _414  and  _415
REMARK  175  A    between atoms: _418  and  _420
REMARK  176  A    between atoms: _420  and  _421
REMARK  177  A    between atoms: _420  and  _423
REMARK  178  A    between atoms: _423  and  _424
REMARK  179  A    between atoms: _429  and  _431
REMARK  180  A    between atoms: _431  and  _432
REMARK  181  A    between atoms: _431  and  _434
REMARK  182  A    between atoms: _434  and  _435
REMARK  183  A    between atoms: _438  and  _440
REMARK  184  A    between atoms: _440  and  _441
REMARK  185  A    between atoms: _440  and  _443
REMARK  186  A    between atoms: _443  and  _444
REMARK  187  A    between atoms: _447  and  _449
REMARK  188  A    between atoms: _449  and  _450
REMARK  189  A    between atoms: _449  and  _452
REMARK  190  A    between atoms: _452  and  _453
REMARK  191  A    between atoms: _456  and  _458
REMARK  192  A    between atoms: _458  and  _459
REMARK  193  A    between atoms: _458  and  _461
REMARK  194  A    between atoms: _461  and  _462
REMARK  195  A    between atoms: _465  and  _467
REMARK  196  A    between atoms: _467  and  _468
REMARK  197  A    between atoms: _467  and  _470
REMARK  198  A    between atoms: _470  and  _471
REMARK  199  A    between atoms: _471  and  _472
REMARK  200  A    between atoms: _472  and  _473
REMARK  201  A    between atoms: _473  and  _474
REMARK  202  A    between atoms: _478  and  _480
REMARK  203  A    between atoms: _480  and  _481
REMARK  204  A    between atoms: _480  and  _483
REMARK  205  A    between atoms: _483  and  _484
REMARK  206  A    between atoms: _487  and  _489
REMARK  207  A    between atoms: _489  and  _490
REMARK  208  A    between atoms: _489  and  _492
REMARK  209  A    between atoms: _492  and  _493
REMARK  210  A    between atoms: _495  and  _497
REMARK  211  A    between atoms: _497  and  _498
REMARK  212  A    between atoms: _497  and  _500
REMARK  213  A    between atoms: _500  and  _501
REMARK  214  A    between atoms: _504  and  _506
REMARK  215  A    between atoms: _506  and  _507
REMARK  216  A    between atoms: _506  and  _509
REMARK  217  A    between atoms: _509  and  _510
REMARK  218  A    between atoms: _516  and  _518
REMARK  219  A    between atoms: _518  and  _519
REMARK  220  A    between atoms: _521  and  _523
REMARK  221  A    between atoms: _523  and  _524
REMARK  222  A    between atoms: _523  and  _526
REMARK  223  A    between atoms: _526  and  _527
REMARK                            x       y       z     vdW  Elec       q    Type
REMARK                         _______ _______ _______ _____ _____    ______ ____
ROOT
ATOM      1  C   LYS A   3      12.922  15.081  18.791  0.00  0.00    +0.241 C 
ATOM      2  O   LYS A   3      12.256  14.197  19.327  0.00  0.00    -0.273 OA
ATOM      3  N   PHE A   4      14.252  15.076  18.760  0.00  0.00    -0.297 N 
ATOM      4  H   PHE A   4      14.739  15.855  18.273  0.00  0.00    +0.150 HD
ENDROOT
BRANCH   3   5
ATOM      5  CA  PHE A   4      15.062  14.025  19.379  0.00  0.00    +0.153 C 
BRANCH   5   6
ATOM      6  C   PHE A   4      15.690  14.606  20.642  0.00  0.00    +0.241 C 
ATOM      7  N   TYR A   5      15.551  13.897  21.758  0.00  0.00    -0.298 N 
ATOM      8  H   TYR A   5      15.044  12.990  21.728  0.00  0.00    +0.150 HD
ATOM      9  O   PHE A   4      16.293  15.679  20.604  0.00  0.00    -0.273 OA
BRANCH   7  10
ATOM     10  CA  TYR A   5      16.100  14.373  23.025  0.00  0.00    +0.141 C 
BRANCH  10  11
ATOM     11  C   TYR A   5      17.423  13.706  23.380  0.00  0.00    +0.227 C 
ATOM     12  O   TYR A   5      18.213  14.251  24.151  0.00  0.00    -0.286 OA
ENDBRANCH  10  11
BRANCH  10  13
ATOM     13  CB  TYR A   5      15.093  14.135  24.148  0.00  0.00    +0.054 C 
BRANCH  13  14
ATOM     14  CG  TYR A   5      13.767  14.832  23.953  0.00  0.00    -0.020 A 
ATOM     15  CD2 TYR A   5      12.570  14.149  24.148  0.00  0.00    -0.001 A 
ATOM     16  CE2 TYR A   5      11.344  14.789  24.017  0.00  0.00    +0.036 A 
ATOM     17  CZ  TYR A   5      11.305  16.131  23.690  0.00  0.00    +0.134 A 
ATOM     18  CE1 TYR A   5      12.481  16.839  23.486  0.00  0.00    +0.036 A 
ATOM     19  CD1 TYR A   5      13.706  16.184  23.617  0.00  0.00    -0.001 A 
BRANCH  17  20
ATOM     20  OH  TYR A   5      10.089  16.761  23.583  0.00  0.00    -0.506 OA
ATOM     21  HH  TYR A   5       9.365  16.110  23.759  0.00  0.00    +0.292 HD
ENDBRANCH  17  20
ENDBRANCH  13  14
ENDBRANCH  10  13
ENDBRANCH   7  10
ENDBRANCH   5   6
BRANCH   5  22
ATOM     22  CB  PHE A   4      16.162  13.579  18.413  0.00  0.00    +0.055 C 
BRANCH  22  23
ATOM     23  CG  PHE A   4      17.090  12.536  18.973  0.00  0.00    -0.020 A 
ATOM     24  CD2 PHE A   4      16.626  11.262  19.286  0.00  0.00    -0.004 A 
ATOM     25  CE2 PHE A   4      17.495  10.282  19.767  0.00  0.00    -0.000 A 
ATOM     26  CZ  PHE A   4      18.847  10.578  19.939  0.00  0.00    -0.000 A 
ATOM     27  CE1 PHE A   4      19.320  11.851  19.633  0.00  0.00    -0.000 A 
ATOM     28  CD1 PHE A   4      18.442  12.820  19.153  0.00  0.00    -0.004 A 
ENDBRANCH  22  23
ENDBRANCH   5  22
ENDBRANCH   3   5
BRANCH   1  29
ATOM     29  CA  LYS A   3      12.246  16.267  18.105  0.00  0.00    +0.149 C 
BRANCH  29  31
ATOM     30  C   VAL A   2      10.844  15.249  16.385  0.00  0.00    +0.241 C 
ATOM     31  N   LYS A   3      10.952  15.911  17.533  0.00  0.00    -0.297 N 
ATOM     32  H   LYS A   3      10.086  16.184  18.040  0.00  0.00    +0.150 HD
ATOM     33  O   VAL A   2      11.816  14.882  15.717  0.00  0.00    -0.273 OA
BRANCH  30  34
ATOM     34  CA  VAL A   2       9.421  14.968  15.917  0.00  0.00    +0.148 C 
BRANCH  34  37
ATOM     35  C   VAL A   1       9.446  16.759  14.286  0.00  0.00    +0.238 C 
ATOM     36  O   VAL A   1       9.784  17.574  15.143  0.00  0.00    -0.274 OA
ATOM     37  N   VAL A   2       9.237  15.474  14.562  0.00  0.00    -0.297 N 
ATOM     38  H   VAL A   2       8.940  14.826  13.805  0.00  0.00    +0.150 HD
BRANCH  35  39
ATOM     39  CA  VAL A   1       9.227  17.206  12.836  0.00  0.00    +0.145 C 
BRANCH  39  40
ATOM     40  CB  VAL A   1      10.608  17.406  12.165  0.00  0.00    +0.025 C 
ATOM     41  CG2 VAL A   1      11.414  16.104  12.234  0.00  0.00    +0.002 C 
ATOM     42  CG1 VAL A   1      10.424  17.844  10.702  0.00  0.00    +0.002 C 
ENDBRANCH  39  40
BRANCH  39  43
ATOM     43  N   VAL A   1       8.449  18.443  12.862  0.00  0.00    -0.238 NA
ATOM     44  H   VAL A   1       8.745  19.205  13.505  0.00  0.00    +0.142 HD
ENDBRANCH  39  43
ENDBRANCH  35  39
ENDBRANCH  34  37
BRANCH  34  45
ATOM     45  CB  VAL A   2       9.149  13.452  16.004  0.00  0.00    +0.027 C 
ATOM     46  CG2 VAL A   2       9.443  12.945  17.422  0.00  0.00    +0.002 C 
ATOM     47  CG1 VAL A   2       7.700  13.163  15.635  0.00  0.00    +0.002 C 
ENDBRANCH  34  45
ENDBRANCH  30  34
ENDBRANCH  29  31
BRANCH  29  48
ATOM     48  CB  LYS A   3      12.065  17.409  19.112  0.00  0.00    +0.029 C 
BRANCH  48  49
ATOM     49  CG  LYS A   3      13.346  17.854  19.804  0.00  0.00    +0.000 C 
BRANCH  49  50
ATOM     50  CD  LYS A   3      14.326  18.506  18.832  0.00  0.00    -0.024 C 
BRANCH  50  51
ATOM     51  CE  LYS A   3      15.615  18.905  19.539  0.00  0.00    -0.086 C 
BRANCH  51  52
ATOM     52  NZ  LYS A   3      16.540  19.631  18.625  0.00  0.00    +0.380 N 
ATOM     53  HZ1 LYS A   3      17.406  19.886  19.141  0.00  0.00    -0.089 HD
ATOM     54  HZ2 LYS A   3      16.075  20.494  18.277  0.00  0.00    -0.089 HD
ATOM     55  HZ3 LYS A   3      16.782  19.018  17.821  0.00  0.00    -0.089 HD
ENDBRANCH  51  52
ENDBRANCH  50  51
ENDBRANCH  49  50
ENDBRANCH  48  49
ENDBRANCH  29  48
ENDBRANCH   1  29
TORSDOF 22
REMARK  Name = ../refined-set-2016/1nvq/1nvq_pocket.pdb
REMARK  223 active torsions:
REMARK  status: ('A' for Active; 'I' for Inactive)
REMARK    1  A    between atoms: _1  and  _3
REMARK    2  A    between atoms: _3  and  _4
REMARK    3  A    between atoms: _3  and  _6
REMARK    4  A    between atoms: _6  and  _7
REMARK    5  A    between atoms: _7  and  _8
REMARK    6  A    between atoms: _13  and  _15
REMARK    7  A    between atoms: _15  and  _16
REMARK    8  A    between atoms: _15  and  _18
REMARK    9  A    between atoms: _18  and  _19
REMARK   10  A    between atoms: _22  and  _24
REMARK   11  A    between atoms: _24  and  _25
REMARK   12  A    between atoms: _24  and  _27
REMARK   13  A    between atoms: _27  and  _28
REMARK   14  A    between atoms: _31  and  _33
REMARK   15  A    between atoms: _33  and  _34
REMARK   16  A    between atoms: _36  and  _38
REMARK   17  A    between atoms: _38  and  _39
REMARK   18  A    between atoms: _38  and  _41
REMARK   19  A    between atoms: _41  and  _42
REMARK   20  A    between atoms: _42  and  _43
REMARK   21  A    between atoms: _46  and  _48
REMARK   22  A    between atoms: _48  and  _49
REMARK   23  A    between atoms: _51  and  _53
REMARK   24  A    between atoms: _53  and  _54
REMARK   25  A    between atoms: _53  and  _56
REMARK   26  A    between atoms: _56  and  _57
REMARK   27  A    between atoms: _62  and  _63
REMARK   28  A    between atoms: _65  and  _67
REMARK   29  A    between atoms: _67  and  _68
REMARK   30  A    between atoms: _70  and  _72
REMARK   31  A    between atoms: _72  and  _73
REMARK   32  A    between atoms: _72  and  _75
REMARK   33  A    between atoms: _75  and  _76
REMARK   34  A    between atoms: _76  and  _77
REMARK   35  A    between atoms: _80  and  _82
REMARK   36  A    between atoms: _82  and  _83
REMARK   37  A    between atoms: _82  and  _85
REMARK   38  A    between atoms: _88  and  _90
REMARK   39  A    between atoms: _90  and  _91
REMARK   40  A    between atoms: _90  and  _93
REMARK   41  A    between atoms: _93  and  _94
REMARK   42  A    between atoms: _94  and  _95
REMARK   43  A    between atoms: _100  and  _102
REMARK   44  A    between atoms: _102  and  _103
REMARK   45  A    between atoms: _102  and  _105
REMARK   46  A    between atoms: _105  and  _106
REMARK   47  A    between atoms: _109  and  _111
REMARK   48  A    between atoms: _111  and  _112
REMARK   49  A    between atoms: _115  and  _117
REMARK   50  A    between atoms: _117  and  _118
REMARK   51  A    between atoms: _121  and  _123
REMARK   52  A    between atoms: _123  and  _124
REMARK   53  A    between atoms: _123  and  _126
REMARK   54  A    between atoms: _129  and  _131
REMARK   55  A    between atoms: _131  and  _132
REMARK   56  A    between atoms: _135  and  _137
REMARK   57  A    between atoms: _137  and  _138
REMARK   58  A    between atoms: _137  and  _140
REMARK   59  A    between atoms: _143  and  _145
REMARK   60  A    between atoms: _145  and  _146
REMARK   61  A    between atoms: _145  and  _148
REMARK   62  A    between atoms: _148  and  _149
REMARK   63  A    between atoms: _149  and  _150
REMARK   64  A    between atoms: _150  and  _151
REMARK   65  A    between atoms: _151  and  _152
REMARK   66  A    between atoms: _156  and  _158
REMARK   67  A    between atoms: _158  and  _159
REMARK   68  A    between atoms: _158  and  _161
REMARK   69  A    between atoms: _161  and  _162
REMARK   70  A    between atoms: _165  and  _167
REMARK   71  A    between atoms: _167  and  _168
REMARK   72  A    between atoms: _167  and  _170
REMARK   73  A    between atoms: _173  and  _175
REMARK   74  A    between atoms: _175  and  _176
REMARK   75  A    between atoms: _175  and  _178
REMARK   76  A    between atoms: _178  and  _179
REMARK   77  A    between atoms: _179  and  _180
REMARK   78  A    between atoms: _183  and  _185
REMARK   79  A    between atoms: _185  and  _186
REMARK   80  A    between atoms: _185  and  _188
REMARK   81  A    between atoms: _188  and  _189
REMARK   82  A    between atoms: _194  and  _196
REMARK   83  A    between atoms: _196  and  _197
REMARK   84  A    between atoms: _196  and  _199
REMARK   85  A    between atoms: _202  and  _204
REMARK   86  A    between atoms: _204  and  _205
REMARK   87  A    between atoms: _204  and  _207
REMARK   88  A    between atoms: _210  and  _212
REMARK   89  A    between atoms: _212  and  _213
REMARK   90  A    between atoms: _212  and  _215
REMARK   91  A    between atoms: _215  and  _216
REMARK   92  A    between atoms: _216  and  _217
REMARK   93  A    between atoms: _217  and  _218
REMARK   94  A    between atoms: _218  and  _219
REMARK   95  A    between atoms: _223  and  _225
REMARK   96  A    between atoms: _225  and  _226
REMARK   97  A    between atoms: _225  and  _228
REMARK   98  A    between atoms: _228  and  _229
REMARK   99  A    between atoms: _235  and  _237
REMARK  100  A    between atoms: _237  and  _238
REMARK  101  A    between atoms: _237  and  _240
REMARK  102  A    between atoms: _240  and  _241
REMARK  103  A    between atoms: _246  and  _247
REMARK  104  A    between atoms: _249  and  _251
REMARK  105  A    between atoms: _251  and  _252
REMARK  106  A    between atoms: _251  and  _254
REMARK  107  A    between atoms: _254  and  _255
REMARK  108  A    between atoms: _258  and  _260
REMARK  109  A    between atoms: _260  and  _261
REMARK  110  A    between atoms: _260  and  _263
REMARK  111  A    between atoms: _263  and  _264
REMARK  112  A    between atoms: _270  and  _272
REMARK  113  A    between atoms: _272  and  _273
REMARK  114  A    between atoms: _272  and  _275
REMARK  115  A    between atoms: _275  and  _276
REMARK  116  A    between atoms: _279  and  _281
REMARK  117  A    between atoms: _281  and  _282
REMARK  118  A    between atoms: _281  and  _284
REMARK  119  A    between atoms: _284  and  _285
REMARK  120  A    between atoms: _285  and  _286
REMARK  121  A    between atoms: _289  and  _291
REMARK  122  A    between atoms: _291  and  _292
REMARK  123  A    between atoms: _291  and  _294
REMARK  124  A    between atoms: _294  and  _295
REMARK  125  A    between atoms: _300  and  _301
REMARK  126  A    between atoms: _303  and  _305
REMARK  127  A    between atoms: _305  and  _306
REMARK  128  A    between atoms: _305  and  _308
REMARK  129  A    between atoms: _310  and  _312
REMARK  130  A    between atoms: _312  and  _313
REMARK  131  A    between atoms: _312  and  _315
REMARK  132  A    between atoms: _315  and  _316
REMARK  133  A    between atoms: _318  and  _320
REMARK  134  A    between atoms: _320  and  _321
REMARK  135  A    between atoms: _323  and  _325
REMARK  136  A    between atoms: _325  and  _326
REMARK  137  A    between atoms: _328  and  _330
REMARK  138  A    between atoms: _330  and  _331
REMARK  139  A    between atoms: _330  and  _333
REMARK  140  A    between atoms: _333  and  _334
REMARK  141  A    between atoms: _334  and  _335
REMARK  142  A    between atoms: _338  and  _340
REMARK  143  A    between atoms: _340  and  _341
REMARK  144  A    between atoms: _340  and  _343
REMARK  145  A    between atoms: _343  and  _344
REMARK  146  A    between atoms: _347  and  _349
REMARK  147  A    between atoms: _349  and  _350
REMARK  148  A    between atoms: _349  and  _352
REMARK  149  A    between atoms: _352  and  _353
REMARK  150  A    between atoms: _359  and  _361
REMARK  151  A    between atoms: _361  and  _362
REMARK  152  A    between atoms: _361  and  _364
REMARK  153  A    between atoms: _364  and  _365
REMARK  154  A    between atoms: _368  and  _370
REMARK  155  A    between atoms: _370  and  _371
REMARK  156  A    between atoms: _370  and  _373
REMARK  157  A    between atoms: _373  and  _374
REMARK  158  A    between atoms: _379  and  _381
REMARK  159  A    between atoms: _381  and  _382
REMARK  160  A    between atoms: _381  and  _384
REMARK  161  A    between atoms: _384  and  _385
REMARK  162  A    between atoms: _388  and  _390
REMARK  163  A    between atoms: _390  and  _391
REMARK  164  A    between atoms: _390  and  _393
REMARK  165  A    between atoms: _393  and  _394
REMARK  166  A    between atoms: _394  and  _395
REMARK  167  A    between atoms: _395  and  _396
REMARK  168  A    between atoms: _396  and  _397
REMARK  169  A    between atoms: _402  and  _403
REMARK  170  A    between atoms: _408  and  _410
REMARK  171  A    between atoms: _410  and  _411
REMARK  172  A    between atoms: _410  and  _413
REMARK  173  A    between atoms: _413  and  _414
REMARK  174  A    between atoms: _414  and  _415
REMARK  175  A    between atoms: _418  and  _420
REMARK  176  A    between atoms: _420  and  _421
REMARK  177  A    between atoms: _420  and  _423
REMARK  178  A    between atoms: _423  and  _424
REMARK  179  A    between atoms: _429  and  _431
REMARK  180  A    between atoms: _431  and  _432
REMARK  181  A    between atoms: _431  and  _434
REMARK  182  A    between atoms: _434  and  _435
REMARK  183  A    between atoms: _438  and  _440
REMARK  184  A    between atoms: _440  and  _441
REMARK  185  A    between atoms: _440  and  _443
REMARK  186  A    between atoms: _443  and  _444
REMARK  187  A    between atoms: _447  and  _449
REMARK  188  A    between atoms: _449  and  _450
REMARK  189  A    between atoms: _449  and  _452
REMARK  190  A    between atoms: _452  and  _453
REMARK  191  A    between atoms: _456  and  _458
REMARK  192  A    between atoms: _458  and  _459
REMARK  193  A    between atoms: _458  and  _461
REMARK  194  A    between atoms: _461  and  _462
REMARK  195  A    between atoms: _465  and  _467
REMARK  196  A    between atoms: _467  and  _468
REMARK  197  A    between atoms: _467  and  _470
REMARK  198  A    between atoms: _470  and  _471
REMARK  199  A    between atoms: _471  and  _472
REMARK  200  A    between atoms: _472  and  _473
REMARK  201  A    between atoms: _473  and  _474
REMARK  202  A    between atoms: _478  and  _480
REMARK  203  A    between atoms: _480  and  _481
REMARK  204  A    between atoms: _480  and  _483
REMARK  205  A    between atoms: _483  and  _484
REMARK  206  A    between atoms: _487  and  _489
REMARK  207  A    between atoms: _489  and  _490
REMARK  208  A    between atoms: _489  and  _492
REMARK  209  A    between atoms: _492  and  _493
REMARK  210  A    between atoms: _495  and  _497
REMARK  211  A    between atoms: _497  and  _498
REMARK  212  A    between atoms: _497  and  _500
REMARK  213  A    between atoms: _500  and  _501
REMARK  214  A    between atoms: _504  and  _506
REMARK  215  A    between atoms: _506  and  _507
REMARK  216  A    between atoms: _506  and  _509
REMARK  217  A    between atoms: _509  and  _510
REMARK  218  A    between atoms: _516  and  _518
REMARK  219  A    between atoms: _518  and  _519
REMARK  220  A    between atoms: _521  and  _523
REMARK  221  A    between atoms: _523  and  _524
REMARK  222  A    between atoms: _523  and  _526
REMARK  223  A    between atoms: _526  and  _527
REMARK                            x       y       z     vdW  Elec       q    Type
REMARK                         _______ _______ _______ _____ _____    ______ ____
ROOT
ATOM      1  C   CYS A   6       1.328  12.818  20.549  0.00  0.00    +0.242 C 
ATOM      2  N   SER A   7       0.729  13.354  21.611  0.00  0.00    -0.295 N 
ATOM      3  H   SER A   7       1.142  14.205  22.044  0.00  0.00    +0.150 HD
ATOM      4  O   CYS A   6       0.885  11.835  19.957  0.00  0.00    -0.273 OA
ENDROOT
BRANCH   1   5
ATOM      5  CA  CYS A   6       2.622  13.499  20.091  0.00  0.00    +0.160 C 
BRANCH   5   8
ATOM      6  C   TYR A   5       4.493  13.577  21.654  0.00  0.00    +0.241 C 
ATOM      7  O   TYR A   5       4.330  14.780  21.879  0.00  0.00    -0.273 OA
ATOM      8  N   CYS A   6       3.729  12.886  20.815  0.00  0.00    -0.296 N 
ATOM      9  H   CYS A   6       3.927  11.875  20.670  0.00  0.00    +0.150 HD
BRANCH   6  10
ATOM     10  CA  TYR A   5       5.610  12.794  22.337  0.00  0.00    +0.153 C 
BRANCH  10  12
ATOM     11  C   GLU A   4       7.721  13.433  21.336  0.00  0.00    +0.241 C 
ATOM     12  N   TYR A   5       6.853  13.554  22.333  0.00  0.00    -0.297 N 
ATOM     13  H   TYR A   5       7.063  14.199  23.121  0.00  0.00    +0.150 HD
ATOM     14  O   GLU A   4       7.533  12.671  20.381  0.00  0.00    -0.273 OA
BRANCH  11  15
ATOM     15  CA  GLU A   4       8.991  14.275  21.427  0.00  0.00    +0.149 C 
BRANCH  15  18
ATOM     16  C   LEU A   3      10.381  12.311  21.778  0.00  0.00    +0.241 C 
ATOM     17  O   LEU A   3       9.668  11.891  22.698  0.00  0.00    -0.273 OA
ATOM     18  N   GLU A   4      10.136  13.437  21.119  0.00  0.00    -0.297 N 
ATOM     19  H   GLU A   4      10.784  13.728  20.359  0.00  0.00    +0.150 HD
BRANCH  16  20
ATOM     20  CA  LEU A   3      11.604  11.548  21.306  0.00  0.00    +0.149 C 
BRANCH  20  22
ATOM     21  C   PHE A   2      13.478  10.671  22.583  0.00  0.00    +0.241 C 
ATOM     22  N   LEU A   3      12.179  10.660  22.307  0.00  0.00    -0.297 N 
ATOM     23  H   LEU A   3      11.557  10.001  22.818  0.00  0.00    +0.150 HD
ATOM     24  O   PHE A   2      14.272  11.450  22.059  0.00  0.00    -0.273 OA
BRANCH  21  25
ATOM     25  CA  PHE A   2      13.949   9.658  23.618  0.00  0.00    +0.153 C 
BRANCH  25  27
ATOM     26  C   LEU A   1      14.630   7.644  22.440  0.00  0.00    +0.238 C 
ATOM     27  N   PHE A   2      14.961   8.790  23.026  0.00  0.00    -0.297 N 
ATOM     28  H   PHE A   2      15.961   9.073  23.063  0.00  0.00    +0.150 HD
ATOM     29  O   LEU A   1      13.471   7.236  22.376  0.00  0.00    -0.274 OA
BRANCH  26  30
ATOM     30  CA  LEU A   1      15.772   6.822  21.847  0.00  0.00    +0.145 C 
BRANCH  30  31
ATOM     31  N   LEU A   1      15.771   5.507  22.475  0.00  0.00    -0.238 NA
ATOM     32  H   LEU A   1      15.090   4.786  22.162  0.00  0.00    +0.142 HD
ENDBRANCH  30  31
BRANCH  30  33
ATOM     33  CB  LEU A   1      15.589   6.698  20.330  0.00  0.00    +0.026 C 
BRANCH  33  34
ATOM     34  CG  LEU A   1      16.528   5.757  19.563  0.00  0.00    +0.002 C 
ATOM     35  CD2 LEU A   1      17.978   6.066  19.882  0.00  0.00    +0.000 C 
ATOM     36  CD1 LEU A   1      16.278   5.924  18.072  0.00  0.00    +0.000 C 
ENDBRANCH  33  34
ENDBRANCH  30  33
ENDBRANCH  26  30
ENDBRANCH  25  27
BRANCH  25  37
ATOM     37  CB  PHE A   2      14.509  10.379  24.846  0.00  0.00    +0.055 C 
BRANCH  37  38
ATOM     38  CG  PHE A   2      14.827   9.460  25.994  0.00  0.00    -0.020 A 
ATOM     39  CD2 PHE A   2      14.021   9.441  27.128  0.00  0.00    -0.004 A 
ATOM     40  CE2 PHE A   2      14.306   8.587  28.197  0.00  0.00    -0.000 A 
ATOM     41  CZ  PHE A   2      15.410   7.743  28.131  0.00  0.00    -0.000 A 
ATOM     42  CE1 PHE A   2      16.222   7.755  27.000  0.00  0.00    -0.000 A 
ATOM     43  CD1 PHE A   2      15.926   8.612  25.939  0.00  0.00    -0.004 A 
ENDBRANCH  37  38
ENDBRANCH  25  37
ENDBRANCH  21  25
ENDBRANCH  20  22
BRANCH  20  44
ATOM     44  CB  LEU A   3      11.220  10.733  20.072  0.00  0.00    +0.029 C 
BRANCH  44  45
ATOM     45  CG  LEU A   3      12.345   9.942  19.397  0.00  0.00    +0.002 C 
ATOM     46  CD2 LEU A   3      11.756   8.780  18.622  0.00  0.00    +0.000 C 
ATOM     47  CD1 LEU A   3      13.147  10.858  18.488  0.00  0.00    +0.000 C 
ENDBRANCH  44  45
ENDBRANCH  20  44
ENDBRANCH  16  20
ENDBRANCH  15  18
BRANCH  15  48
ATOM     48  CB  GLU A   4       8.947  15.440  20.435  0.00  0.00    +0.041 C 
BRANCH  48  49
ATOM     49  CG  GLU A   4       7.606  16.115  20.296  0.00  0.00    +0.116 C 
BRANCH  49  50
ATOM     50  CD  GLU A   4       7.657  17.283  19.341  0.00  0.00    +0.365 C 
ATOM     51  OE2 GLU A   4       6.802  18.185  19.454  0.00  0.00    -0.246 OA
ATOM     52  OE1 GLU A   4       8.550  17.289  18.469  0.00  0.00    -0.246 OA
ENDBRANCH  49  50
ENDBRANCH  48  49
ENDBRANCH  15  48
ENDBRANCH  11  15
ENDBRANCH  10  12
BRANCH  10  53
ATOM     53  CB  TYR A   5       5.200  12.449  23.777  0.00  0.00    +0.055 C 
BRANCH  53  54
ATOM     54  CG  TYR A   5       3.850  11.773  23.888  0.00  0.00    -0.020 A 
ATOM     55  CD2 TYR A   5       2.887  12.236  24.790  0.00  0.00    -0.001 A 
ATOM     56  CE2 TYR A   5       1.646  11.608  24.905  0.00  0.00    +0.036 A 
ATOM     57  CZ  TYR A   5       1.360  10.505  24.105  0.00  0.00    +0.134 A 
ATOM     58  CE1 TYR A   5       2.303  10.027  23.204  0.00  0.00    +0.036 A 
ATOM     59  CD1 TYR A   5       3.537  10.661  23.100  0.00  0.00    -0.001 A 
BRANCH  57  60
ATOM     60  OH  TYR A   5       0.123   9.898  24.181  0.00  0.00    -0.506 OA
ATOM     61  HH  TYR A   5      -0.026   9.570  25.103  0.00  0.00    +0.292 HD
ENDBRANCH  57  60
ENDBRANCH  53  54
ENDBRANCH  10  53
ENDBRANCH   6  10
ENDBRANCH   5   8
BRANCH   5  62
ATOM     62  CB  CYS A   6       2.839  13.319  18.582  0.00  0.00    +0.098 C 
ATOM     63  SG  CYS A   6       4.484  13.880  18.007  0.00  0.00    -0.080 S 
ENDBRANCH   5  62
ENDBRANCH   1   5
BRANCH   2  64
ATOM     64  CA  SER A   7      -0.491  12.787  22.191  0.00  0.00    +0.178 C 
BRANCH  64  65
ATOM     65  C   SER A   7      -1.681  12.705  21.245  0.00  0.00    +0.243 C 
ATOM     66  O   SER A   7      -2.626  11.963  21.510  0.00  0.00    -0.273 OA
ATOM     67  N   GLY A   8      -1.635  13.462  20.150  0.00  0.00    -0.295 N 
ATOM     68  H   GLY A   8      -0.807  14.067  19.976  0.00  0.00    +0.150 HD
BRANCH  67  69
ATOM     69  CA  GLY A   8      -2.732  13.450  19.195  0.00  0.00    +0.176 C 
BRANCH  69  70
ATOM     70  C   GLY A   8      -2.846  12.171  18.385  0.00  0.00    +0.243 C 
ATOM     71  N   GLY A   9      -1.799  11.356  18.395  0.00  0.00    -0.295 N 
ATOM     72  H   GLY A   9      -0.948  11.606  18.938  0.00  0.00    +0.150 HD
ATOM     73  O   GLY A   8      -3.869  11.918  17.754  0.00  0.00    -0.273 OA
BRANCH  71  74
ATOM     74  CA  GLY A   9      -1.846  10.115  17.646  0.00  0.00    +0.176 C 
BRANCH  74  75
ATOM     75  C   GLY A   9      -1.597  10.310  16.162  0.00  0.00    +0.243 C 
ATOM     76  O   GLY A   9      -1.119  11.360  15.741  0.00  0.00    -0.273 OA
ATOM     77  N   GLU A  10      -1.937   9.297  15.373  0.00  0.00    -0.297 N 
ATOM     78  H   GLU A  10      -2.365   8.452  15.802  0.00  0.00    +0.150 HD
BRANCH  77  79
ATOM     79  CA  GLU A  10      -1.734   9.324  13.930  0.00  0.00    +0.149 C 
BRANCH  79  80
ATOM     80  C   GLU A  10      -2.750  10.162  13.173  0.00  0.00    +0.241 C 
ATOM     81  O   GLU A  10      -3.937  10.178  13.505  0.00  0.00    -0.273 OA
ATOM     82  N   LEU A  11      -2.273  10.846  12.140  0.00  0.00    -0.297 N 
ATOM     83  H   LEU A  11      -1.253  10.816  11.937  0.00  0.00    +0.150 HD
BRANCH  82  84
ATOM     84  CA  LEU A  11      -3.146  11.636  11.286  0.00  0.00    +0.149 C 
BRANCH  84  85
ATOM     85  C   LEU A  11      -4.089  10.615  10.662  0.00  0.00    +0.241 C 
ATOM     86  N   PHE A  12      -3.571   9.402  10.474  0.00  0.00    -0.297 N 
ATOM     87  H   PHE A  12      -2.585   9.226  10.752  0.00  0.00    +0.150 HD
ATOM     88  O   LEU A  11      -5.244  10.913  10.359  0.00  0.00    -0.273 OA
BRANCH  86  89
ATOM     89  CA  PHE A  12      -4.347   8.314   9.889  0.00  0.00    +0.153 C 
BRANCH  89  90
ATOM     90  C   PHE A  12      -5.717   8.157  10.560  0.00  0.00    +0.241 C 
ATOM     91  N   ASP A  13      -5.753   8.241  11.888  0.00  0.00    -0.298 N 
ATOM     92  H   ASP A  13      -4.876   8.419  12.417  0.00  0.00    +0.150 HD
ATOM     93  O   PHE A  12      -6.722   7.963   9.881  0.00  0.00    -0.273 OA
BRANCH  91  94
ATOM     94  CA  ASP A  13      -7.012   8.085  12.607  0.00  0.00    +0.148 C 
BRANCH  94  95
ATOM     95  C   ASP A  13      -7.965   9.271  12.497  0.00  0.00    +0.227 C 
ATOM     96  O   ASP A  13      -9.093   9.196  12.977  0.00  0.00    -0.286 OA
ENDBRANCH  94  95
BRANCH  94  97
ATOM     97  CB  ASP A  13      -6.758   7.751  14.082  0.00  0.00    +0.142 C 
BRANCH  97  98
ATOM     98  CG  ASP A  13      -6.080   6.401  14.262  0.00  0.00    +0.367 C 
ATOM     99  OD2 ASP A  13      -5.247   6.262  15.179  0.00  0.00    -0.246 OA
ATOM    100  OD1 ASP A  13      -6.390   5.472  13.486  0.00  0.00    -0.246 OA
ENDBRANCH  97  98
ENDBRANCH  94  97
ENDBRANCH  91  94
ENDBRANCH  89  90
BRANCH  89 101
ATOM    101  CB  PHE A  12      -3.588   6.986  10.007  0.00  0.00    +0.055 C 
BRANCH 101 102
ATOM    102  CG  PHE A  12      -4.373   5.790   9.512  0.00  0.00    -0.020 A 
ATOM    103  CD2 PHE A  12      -5.021   4.948  10.412  0.00  0.00    -0.004 A 
ATOM    104  CE2 PHE A  12      -5.764   3.845   9.967  0.00  0.00    -0.000 A 
ATOM    105  CZ  PHE A  12      -5.859   3.580   8.598  0.00  0.00    -0.000 A 
ATOM    106  CE1 PHE A  12      -5.214   4.418   7.687  0.00  0.00    -0.000 A 
ATOM    107  CD1 PHE A  12      -4.475   5.519   8.152  0.00  0.00    -0.004 A 
ENDBRANCH 101 102
ENDBRANCH  89 101
ENDBRANCH  86  89
ENDBRANCH  84  85
BRANCH  84 108
ATOM    108  CB  LEU A  11      -2.330  12.318  10.182  0.00  0.00    +0.029 C 
BRANCH 108 109
ATOM    109  CG  LEU A  11      -3.139  12.969   9.057  0.00  0.00    +0.002 C 
ATOM    110  CD2 LEU A  11      -3.835  14.205   9.598  0.00  0.00    +0.000 C 
ATOM    111  CD1 LEU A  11      -2.223  13.337   7.878  0.00  0.00    +0.000 C 
ENDBRANCH 108 109
ENDBRANCH  84 108
ENDBRANCH  82  84
ENDBRANCH  79  80
BRANCH  79 112
ATOM    112  CB  GLU A  10      -1.796   7.911  13.347  0.00  0.00    +0.041 C 
BRANCH 112 113
ATOM    113  CG  GLU A  10      -0.883   6.874  13.986  0.00  0.00    +0.116 C 
BRANCH 113 114
ATOM    114  CD  GLU A  10      -1.024   5.518  13.315  0.00  0.00    +0.365 C 
ATOM    115  OE2 GLU A  10      -0.353   4.560  13.744  0.00  0.00    -0.246 OA
ATOM    116  OE1 GLU A  10      -1.809   5.414  12.352  0.00  0.00    -0.246 OA
ENDBRANCH 113 114
ENDBRANCH 112 113
ENDBRANCH  79 112
ENDBRANCH  77  79
ENDBRANCH  74  75
ENDBRANCH  71  74
ENDBRANCH  69  70
ENDBRANCH  67  69
ENDBRANCH  64  65
BRANCH  64 117
ATOM    117  CB  SER A   7      -0.901  13.577  23.442  0.00  0.00    +0.166 C 
BRANCH 117 118
ATOM    118  OG  SER A   7      -1.283  14.904  23.116  0.00  0.00    -0.380 OA
ATOM    119  H   SER A   7      -2.052  14.881  22.493  0.00  0.00    +0.211 HD
ENDBRANCH 117 118
ENDBRANCH  64 117
ENDBRANCH   2  64
TORSDOF 50
REMARK  Name = ../refined-set-2016/1nvq/1nvq_pocket.pdb
REMARK  223 active torsions:
REMARK  status: ('A' for Active; 'I' for Inactive)
REMARK    1  A    between atoms: _1  and  _3
REMARK    2  A    between atoms: _3  and  _4
REMARK    3  A    between atoms: _3  and  _6
REMARK    4  A    between atoms: _6  and  _7
REMARK    5  A    between atoms: _7  and  _8
REMARK    6  A    between atoms: _13  and  _15
REMARK    7  A    between atoms: _15  and  _16
REMARK    8  A    between atoms: _15  and  _18
REMARK    9  A    between atoms: _18  and  _19
REMARK   10  A    between atoms: _22  and  _24
REMARK   11  A    between atoms: _24  and  _25
REMARK   12  A    between atoms: _24  and  _27
REMARK   13  A    between atoms: _27  and  _28
REMARK   14  A    between atoms: _31  and  _33
REMARK   15  A    between atoms: _33  and  _34
REMARK   16  A    between atoms: _36  and  _38
REMARK   17  A    between atoms: _38  and  _39
REMARK   18  A    between atoms: _38  and  _41
REMARK   19  A    between atoms: _41  and  _42
REMARK   20  A    between atoms: _42  and  _43
REMARK   21  A    between atoms: _46  and  _48
REMARK   22  A    between atoms: _48  and  _49
REMARK   23  A    between atoms: _51  and  _53
REMARK   24  A    between atoms: _53  and  _54
REMARK   25  A    between atoms: _53  and  _56
REMARK   26  A    between atoms: _56  and  _57
REMARK   27  A    between atoms: _62  and  _63
REMARK   28  A    between atoms: _65  and  _67
REMARK   29  A    between atoms: _67  and  _68
REMARK   30  A    between atoms: _70  and  _72
REMARK   31  A    between atoms: _72  and  _73
REMARK   32  A    between atoms: _72  and  _75
REMARK   33  A    between atoms: _75  and  _76
REMARK   34  A    between atoms: _76  and  _77
REMARK   35  A    between atoms: _80  and  _82
REMARK   36  A    between atoms: _82  and  _83
REMARK   37  A    between atoms: _82  and  _85
REMARK   38  A    between atoms: _88  and  _90
REMARK   39  A    between atoms: _90  and  _91
REMARK   40  A    between atoms: _90  and  _93
REMARK   41  A    between atoms: _93  and  _94
REMARK   42  A    between atoms: _94  and  _95
REMARK   43  A    between atoms: _100  and  _102
REMARK   44  A    between atoms: _102  and  _103
REMARK   45  A    between atoms: _102  and  _105
REMARK   46  A    between atoms: _105  and  _106
REMARK   47  A    between atoms: _109  and  _111
REMARK   48  A    between atoms: _111  and  _112
REMARK   49  A    between atoms: _115  and  _117
REMARK   50  A    between atoms: _117  and  _118
REMARK   51  A    between atoms: _121  and  _123
REMARK   52  A    between atoms: _123  and  _124
REMARK   53  A    between atoms: _123  and  _126
REMARK   54  A    between atoms: _129  and  _131
REMARK   55  A    between atoms: _131  and  _132
REMARK   56  A    between atoms: _135  and  _137
REMARK   57  A    between atoms: _137  and  _138
REMARK   58  A    between atoms: _137  and  _140
REMARK   59  A    between atoms: _143  and  _145
REMARK   60  A    between atoms: _145  and  _146
REMARK   61  A    between atoms: _145  and  _148
REMARK   62  A    between atoms: _148  and  _149
REMARK   63  A    between atoms: _149  and  _150
REMARK   64  A    between atoms: _150  and  _151
REMARK   65  A    between atoms: _151  and  _152
REMARK   66  A    between atoms: _156  and  _158
REMARK   67  A    between atoms: _158  and  _159
REMARK   68  A    between atoms: _158  and  _161
REMARK   69  A    between atoms: _161  and  _162
REMARK   70  A    between atoms: _165  and  _167
REMARK   71  A    between atoms: _167  and  _168
REMARK   72  A    between atoms: _167  and  _170
REMARK   73  A    between atoms: _173  and  _175
REMARK   74  A    between atoms: _175  and  _176
REMARK   75  A    between atoms: _175  and  _178
REMARK   76  A    between atoms: _178  and  _179
REMARK   77  A    between atoms: _179  and  _180
REMARK   78  A    between atoms: _183  and  _185
REMARK   79  A    between atoms: _185  and  _186
REMARK   80  A    between atoms: _185  and  _188
REMARK   81  A    between atoms: _188  and  _189
REMARK   82  A    between atoms: _194  and  _196
REMARK   83  A    between atoms: _196  and  _197
REMARK   84  A    between atoms: _196  and  _199
REMARK   85  A    between atoms: _202  and  _204
REMARK   86  A    between atoms: _204  and  _205
REMARK   87  A    between atoms: _204  and  _207
REMARK   88  A    between atoms: _210  and  _212
REMARK   89  A    between atoms: _212  and  _213
REMARK   90  A    between atoms: _212  and  _215
REMARK   91  A    between atoms: _215  and  _216
REMARK   92  A    between atoms: _216  and  _217
REMARK   93  A    between atoms: _217  and  _218
REMARK   94  A    between atoms: _218  and  _219
REMARK   95  A    between atoms: _223  and  _225
REMARK   96  A    between atoms: _225  and  _226
REMARK   97  A    between atoms: _225  and  _228
REMARK   98  A    between atoms: _228  and  _229
REMARK   99  A    between atoms: _235  and  _237
REMARK  100  A    between atoms: _237  and  _238
REMARK  101  A    between atoms: _237  and  _240
REMARK  102  A    between atoms: _240  and  _241
REMARK  103  A    between atoms: _246  and  _247
REMARK  104  A    between atoms: _249  and  _251
REMARK  105  A    between atoms: _251  and  _252
REMARK  106  A    between atoms: _251  and  _254
REMARK  107  A    between atoms: _254  and  _255
REMARK  108  A    between atoms: _258  and  _260
REMARK  109  A    between atoms: _260  and  _261
REMARK  110  A    between atoms: _260  and  _263
REMARK  111  A    between atoms: _263  and  _264
REMARK  112  A    between atoms: _270  and  _272
REMARK  113  A    between atoms: _272  and  _273
REMARK  114  A    between atoms: _272  and  _275
REMARK  115  A    between atoms: _275  and  _276
REMARK  116  A    between atoms: _279  and  _281
REMARK  117  A    between atoms: _281  and  _282
REMARK  118  A    between atoms: _281  and  _284
REMARK  119  A    between atoms: _284  and  _285
REMARK  120  A    between atoms: _285  and  _286
REMARK  121  A    between atoms: _289  and  _291
REMARK  122  A    between atoms: _291  and  _292
REMARK  123  A    between atoms: _291  and  _294
REMARK  124  A    between atoms: _294  and  _295
REMARK  125  A    between atoms: _300  and  _301
REMARK  126  A    between atoms: _303  and  _305
REMARK  127  A    between atoms: _305  and  _306
REMARK  128  A    between atoms: _305  and  _308
REMARK  129  A    between atoms: _310  and  _312
REMARK  130  A    between atoms: _312  and  _313
REMARK  131  A    between atoms: _312  and  _315
REMARK  132  A    between atoms: _315  and  _316
REMARK  133  A    between atoms: _318  and  _320
REMARK  134  A    between atoms: _320  and  _321
REMARK  135  A    between atoms: _323  and  _325
REMARK  136  A    between atoms: _325  and  _326
REMARK  137  A    between atoms: _328  and  _330
REMARK  138  A    between atoms: _330  and  _331
REMARK  139  A    between atoms: _330  and  _333
REMARK  140  A    between atoms: _333  and  _334
REMARK  141  A    between atoms: _334  and  _335
REMARK  142  A    between atoms: _338  and  _340
REMARK  143  A    between atoms: _340  and  _341
REMARK  144  A    between atoms: _340  and  _343
REMARK  145  A    between atoms: _343  and  _344
REMARK  146  A    between atoms: _347  and  _349
REMARK  147  A    between atoms: _349  and  _350
REMARK  148  A    between atoms: _349  and  _352
REMARK  149  A    between atoms: _352  and  _353
REMARK  150  A    between atoms: _359  and  _361
REMARK  151  A    between atoms: _361  and  _362
REMARK  152  A    between atoms: _361  and  _364
REMARK  153  A    between atoms: _364  and  _365
REMARK  154  A    between atoms: _368  and  _370
REMARK  155  A    between atoms: _370  and  _371
REMARK  156  A    between atoms: _370  and  _373
REMARK  157  A    between atoms: _373  and  _374
REMARK  158  A    between atoms: _379  and  _381
REMARK  159  A    between atoms: _381  and  _382
REMARK  160  A    between atoms: _381  and  _384
REMARK  161  A    between atoms: _384  and  _385
REMARK  162  A    between atoms: _388  and  _390
REMARK  163  A    between atoms: _390  and  _391
REMARK  164  A    between atoms: _390  and  _393
REMARK  165  A    between atoms: _393  and  _394
REMARK  166  A    between atoms: _394  and  _395
REMARK  167  A    between atoms: _395  and  _396
REMARK  168  A    between atoms: _396  and  _397
REMARK  169  A    between atoms: _402  and  _403
REMARK  170  A    between atoms: _408  and  _410
REMARK  171  A    between atoms: _410  and  _411
REMARK  172  A    between atoms: _410  and  _413
REMARK  173  A    between atoms: _413  and  _414
REMARK  174  A    between atoms: _414  and  _415
REMARK  175  A    between atoms: _418  and  _420
REMARK  176  A    between atoms: _420  and  _421
REMARK  177  A    between atoms: _420  and  _423
REMARK  178  A    between atoms: _423  and  _424
REMARK  179  A    between atoms: _429  and  _431
REMARK  180  A    between atoms: _431  and  _432
REMARK  181  A    between atoms: _431  and  _434
REMARK  182  A    between atoms: _434  and  _435
REMARK  183  A    between atoms: _438  and  _440
REMARK  184  A    between atoms: _440  and  _441
REMARK  185  A    between atoms: _440  and  _443
REMARK  186  A    between atoms: _443  and  _444
REMARK  187  A    between atoms: _447  and  _449
REMARK  188  A    between atoms: _449  and  _450
REMARK  189  A    between atoms: _449  and  _452
REMARK  190  A    between atoms: _452  and  _453
REMARK  191  A    between atoms: _456  and  _458
REMARK  192  A    between atoms: _458  and  _459
REMARK  193  A    between atoms: _458  and  _461
REMARK  194  A    between atoms: _461  and  _462
REMARK  195  A    between atoms: _465  and  _467
REMARK  196  A    between atoms: _467  and  _468
REMARK  197  A    between atoms: _467  and  _470
REMARK  198  A    between atoms: _470  and  _471
REMARK  199  A    between atoms: _471  and  _472
REMARK  200  A    between atoms: _472  and  _473
REMARK  201  A    between atoms: _473  and  _474
REMARK  202  A    between atoms: _478  and  _480
REMARK  203  A    between atoms: _480  and  _481
REMARK  204  A    between atoms: _480  and  _483
REMARK  205  A    between atoms: _483  and  _484
REMARK  206  A    between atoms: _487  and  _489
REMARK  207  A    between atoms: _489  and  _490
REMARK  208  A    between atoms: _489  and  _492
REMARK  209  A    between atoms: _492  and  _493
REMARK  210  A    between atoms: _495  and  _497
REMARK  211  A    between atoms: _497  and  _498
REMARK  212  A    between atoms: _497  and  _500
REMARK  213  A    between atoms: _500  and  _501
REMARK  214  A    between atoms: _504  and  _506
REMARK  215  A    between atoms: _506  and  _507
REMARK  216  A    between atoms: _506  and  _509
REMARK  217  A    between atoms: _509  and  _510
REMARK  218  A    between atoms: _516  and  _518
REMARK  219  A    between atoms: _518  and  _519
REMARK  220  A    between atoms: _521  and  _523
REMARK  221  A    between atoms: _523  and  _524
REMARK  222  A    between atoms: _523  and  _526
REMARK  223  A    between atoms: _526  and  _527
REMARK                            x       y       z     vdW  Elec       q    Type
REMARK                         _______ _______ _______ _____ _____    ______ ____
ROOT
ATOM      1  CB  HIS A   1      10.812  11.315   5.386  0.00  0.00    +0.072 C 
ENDROOT
BRANCH   1   2
ATOM      2  CG  HIS A   1      10.073  10.480   6.382  0.00  0.00    +0.082 A 
ATOM      3  CD2 HIS A   1      10.051  10.521   7.736  0.00  0.00    +0.115 A 
ATOM      4  NE2 HIS A   1       9.202   9.526   8.158  0.00  0.00    -0.221 NA
ATOM      5  CE1 HIS A   1       8.721   8.897   7.100  0.00  0.00    +0.199 A 
ATOM      6  ND1 HIS A   1       9.230   9.453   6.014  0.00  0.00    -0.227 NA
ENDBRANCH   1   2
BRANCH   1   7
ATOM      7  CA  HIS A   1      12.124  10.689   4.901  0.00  0.00    +0.139 C 
BRANCH   7   8
ATOM      8  N   HIS A   1      12.784  11.612   3.981  0.00  0.00    -0.239 NA
ATOM      9  H   HIS A   1      12.231  12.387   3.562  0.00  0.00    +0.142 HD
ENDBRANCH   7   8
BRANCH   7  10
ATOM     10  C   HIS A   1      11.880   9.310   4.289  0.00  0.00    +0.224 C 
ATOM     11  O   HIS A   1      12.051   8.282   4.960  0.00  0.00    -0.287 OA
ENDBRANCH   7  10
ENDBRANCH   1   7
TORSDOF 4
REMARK  Name = ../refined-set-2016/1nvq/1nvq_pocket.pdb
REMARK  223 active torsions:
REMARK  status: ('A' for Active; 'I' for Inactive)
REMARK    1  A    between atoms: _1  and  _3
REMARK    2  A    between atoms: _3  and  _4
REMARK    3  A    between atoms: _3  and  _6
REMARK    4  A    between atoms: _6  and  _7
REMARK    5  A    between atoms: _7  and  _8
REMARK    6  A    between atoms: _13  and  _15
REMARK    7  A    between atoms: _15  and  _16
REMARK    8  A    between atoms: _15  and  _18
REMARK    9  A    between atoms: _18  and  _19
REMARK   10  A    between atoms: _22  and  _24
REMARK   11  A    between atoms: _24  and  _25
REMARK   12  A    between atoms: _24  and  _27
REMARK   13  A    between atoms: _27  and  _28
REMARK   14  A    between atoms: _31  and  _33
REMARK   15  A    between atoms: _33  and  _34
REMARK   16  A    between atoms: _36  and  _38
REMARK   17  A    between atoms: _38  and  _39
REMARK   18  A    between atoms: _38  and  _41
REMARK   19  A    between atoms: _41  and  _42
REMARK   20  A    between atoms: _42  and  _43
REMARK   21  A    between atoms: _46  and  _48
REMARK   22  A    between atoms: _48  and  _49
REMARK   23  A    between atoms: _51  and  _53
REMARK   24  A    between atoms: _53  and  _54
REMARK   25  A    between atoms: _53  and  _56
REMARK   26  A    between atoms: _56  and  _57
REMARK   27  A    between atoms: _62  and  _63
REMARK   28  A    between atoms: _65  and  _67
REMARK   29  A    between atoms: _67  and  _68
REMARK   30  A    between atoms: _70  and  _72
REMARK   31  A    between atoms: _72  and  _73
REMARK   32  A    between atoms: _72  and  _75
REMARK   33  A    between atoms: _75  and  _76
REMARK   34  A    between atoms: _76  and  _77
REMARK   35  A    between atoms: _80  and  _82
REMARK   36  A    between atoms: _82  and  _83
REMARK   37  A    between atoms: _82  and  _85
REMARK   38  A    between atoms: _88  and  _90
REMARK   39  A    between atoms: _90  and  _91
REMARK   40  A    between atoms: _90  and  _93
REMARK   41  A    between atoms: _93  and  _94
REMARK   42  A    between atoms: _94  and  _95
REMARK   43  A    between atoms: _100  and  _102
REMARK   44  A    between atoms: _102  and  _103
REMARK   45  A    between atoms: _102  and  _105
REMARK   46  A    between atoms: _105  and  _106
REMARK   47  A    between atoms: _109  and  _111
REMARK   48  A    between atoms: _111  and  _112
REMARK   49  A    between atoms: _115  and  _117
REMARK   50  A    between atoms: _117  and  _118
REMARK   51  A    between atoms: _121  and  _123
REMARK   52  A    between atoms: _123  and  _124
REMARK   53  A    between atoms: _123  and  _126
REMARK   54  A    between atoms: _129  and  _131
REMARK   55  A    between atoms: _131  and  _132
REMARK   56  A    between atoms: _135  and  _137
REMARK   57  A    between atoms: _137  and  _138
REMARK   58  A    between atoms: _137  and  _140
REMARK   59  A    between atoms: _143  and  _145
REMARK   60  A    between atoms: _145  and  _146
REMARK   61  A    between atoms: _145  and  _148
REMARK   62  A    between atoms: _148  and  _149
REMARK   63  A    between atoms: _149  and  _150
REMARK   64  A    between atoms: _150  and  _151
REMARK   65  A    between atoms: _151  and  _152
REMARK   66  A    between atoms: _156  and  _158
REMARK   67  A    between atoms: _158  and  _159
REMARK   68  A    between atoms: _158  and  _161
REMARK   69  A    between atoms: _161  and  _162
REMARK   70  A    between atoms: _165  and  _167
REMARK   71  A    between atoms: _167  and  _168
REMARK   72  A    between atoms: _167  and  _170
REMARK   73  A    between atoms: _173  and  _175
REMARK   74  A    between atoms: _175  and  _176
REMARK   75  A    between atoms: _175  and  _178
REMARK   76  A    between atoms: _178  and  _179
REMARK   77  A    between atoms: _179  and  _180
REMARK   78  A    between atoms: _183  and  _185
REMARK   79  A    between atoms: _185  and  _186
REMARK   80  A    between atoms: _185  and  _188
REMARK   81  A    between atoms: _188  and  _189
REMARK   82  A    between atoms: _194  and  _196
REMARK   83  A    between atoms: _196  and  _197
REMARK   84  A    between atoms: _196  and  _199
REMARK   85  A    between atoms: _202  and  _204
REMARK   86  A    between atoms: _204  and  _205
REMARK   87  A    between atoms: _204  and  _207
REMARK   88  A    between atoms: _210  and  _212
REMARK   89  A    between atoms: _212  and  _213
REMARK   90  A    between atoms: _212  and  _215
REMARK   91  A    between atoms: _215  and  _216
REMARK   92  A    between atoms: _216  and  _217
REMARK   93  A    between atoms: _217  and  _218
REMARK   94  A    between atoms: _218  and  _219
REMARK   95  A    between atoms: _223  and  _225
REMARK   96  A    between atoms: _225  and  _226
REMARK   97  A    between atoms: _225  and  _228
REMARK   98  A    between atoms: _228  and  _229
REMARK   99  A    between atoms: _235  and  _237
REMARK  100  A    between atoms: _237  and  _238
REMARK  101  A    between atoms: _237  and  _240
REMARK  102  A    between atoms: _240  and  _241
REMARK  103  A    between atoms: _246  and  _247
REMARK  104  A    between atoms: _249  and  _251
REMARK  105  A    between atoms: _251  and  _252
REMARK  106  A    between atoms: _251  and  _254
REMARK  107  A    between atoms: _254  and  _255
REMARK  108  A    between atoms: _258  and  _260
REMARK  109  A    between atoms: _260  and  _261
REMARK  110  A    between atoms: _260  and  _263
REMARK  111  A    between atoms: _263  and  _264
REMARK  112  A    between atoms: _270  and  _272
REMARK  113  A    between atoms: _272  and  _273
REMARK  114  A    between atoms: _272  and  _275
REMARK  115  A    between atoms: _275  and  _276
REMARK  116  A    between atoms: _279  and  _281
REMARK  117  A    between atoms: _281  and  _282
REMARK  118  A    between atoms: _281  and  _284
REMARK  119  A    between atoms: _284  and  _285
REMARK  120  A    between atoms: _285  and  _286
REMARK  121  A    between atoms: _289  and  _291
REMARK  122  A    between atoms: _291  and  _292
REMARK  123  A    between atoms: _291  and  _294
REMARK  124  A    between atoms: _294  and  _295
REMARK  125  A    between atoms: _300  and  _301
REMARK  126  A    between atoms: _303  and  _305
REMARK  127  A    between atoms: _305  and  _306
REMARK  128  A    between atoms: _305  and  _308
REMARK  129  A    between atoms: _310  and  _312
REMARK  130  A    between atoms: _312  and  _313
REMARK  131  A    between atoms: _312  and  _315
REMARK  132  A    between atoms: _315  and  _316
REMARK  133  A    between atoms: _318  and  _320
REMARK  134  A    between atoms: _320  and  _321
REMARK  135  A    between atoms: _323  and  _325
REMARK  136  A    between atoms: _325  and  _326
REMARK  137  A    between atoms: _328  and  _330
REMARK  138  A    between atoms: _330  and  _331
REMARK  139  A    between atoms: _330  and  _333
REMARK  140  A    between atoms: _333  and  _334
REMARK  141  A    between atoms: _334  and  _335
REMARK  142  A    between atoms: _338  and  _340
REMARK  143  A    between atoms: _340  and  _341
REMARK  144  A    between atoms: _340  and  _343
REMARK  145  A    between atoms: _343  and  _344
REMARK  146  A    between atoms: _347  and  _349
REMARK  147  A    between atoms: _349  and  _350
REMARK  148  A    between atoms: _349  and  _352
REMARK  149  A    between atoms: _352  and  _353
REMARK  150  A    between atoms: _359  and  _361
REMARK  151  A    between atoms: _361  and  _362
REMARK  152  A    between atoms: _361  and  _364
REMARK  153  A    between atoms: _364  and  _365
REMARK  154  A    between atoms: _368  and  _370
REMARK  155  A    between atoms: _370  and  _371
REMARK  156  A    between atoms: _370  and  _373
REMARK  157  A    between atoms: _373  and  _374
REMARK  158  A    between atoms: _379  and  _381
REMARK  159  A    between atoms: _381  and  _382
REMARK  160  A    between atoms: _381  and  _384
REMARK  161  A    between atoms: _384  and  _385
REMARK  162  A    between atoms: _388  and  _390
REMARK  163  A    between atoms: _390  and  _391
REMARK  164  A    between atoms: _390  and  _393
REMARK  165  A    between atoms: _393  and  _394
REMARK  166  A    between atoms: _394  and  _395
REMARK  167  A    between atoms: _395  and  _396
REMARK  168  A    between atoms: _396  and  _397
REMARK  169  A    between atoms: _402  and  _403
REMARK  170  A    between atoms: _408  and  _410
REMARK  171  A    between atoms: _410  and  _411
REMARK  172  A    between atoms: _410  and  _413
REMARK  173  A    between atoms: _413  and  _414
REMARK  174  A    between atoms: _414  and  _415
REMARK  175  A    between atoms: _418  and  _420
REMARK  176  A    between atoms: _420  and  _421
REMARK  177  A    between atoms: _420  and  _423
REMARK  178  A    between atoms: _423  and  _424
REMARK  179  A    between atoms: _429  and  _431
REMARK  180  A    between atoms: _431  and  _432
REMARK  181  A    between atoms: _431  and  _434
REMARK  182  A    between atoms: _434  and  _435
REMARK  183  A    between atoms: _438  and  _440
REMARK  184  A    between atoms: _440  and  _441
REMARK  185  A    between atoms: _440  and  _443
REMARK  186  A    between atoms: _443  and  _444
REMARK  187  A    between atoms: _447  and  _449
REMARK  188  A    between atoms: _449  and  _450
REMARK  189  A    between atoms: _449  and  _452
REMARK  190  A    between atoms: _452  and  _453
REMARK  191  A    between atoms: _456  and  _458
REMARK  192  A    between atoms: _458  and  _459
REMARK  193  A    between atoms: _458  and  _461
REMARK  194  A    between atoms: _461  and  _462
REMARK  195  A    between atoms: _465  and  _467
REMARK  196  A    between atoms: _467  and  _468
REMARK  197  A    between atoms: _467  and  _470
REMARK  198  A    between atoms: _470  and  _471
REMARK  199  A    between atoms: _471  and  _472
REMARK  200  A    between atoms: _472  and  _473
REMARK  201  A    between atoms: _473  and  _474
REMARK  202  A    between atoms: _478  and  _480
REMARK  203  A    between atoms: _480  and  _481
REMARK  204  A    between atoms: _480  and  _483
REMARK  205  A    between atoms: _483  and  _484
REMARK  206  A    between atoms: _487  and  _489
REMARK  207  A    between atoms: _489  and  _490
REMARK  208  A    between atoms: _489  and  _492
REMARK  209  A    between atoms: _492  and  _493
REMARK  210  A    between atoms: _495  and  _497
REMARK  211  A    between atoms: _497  and  _498
REMARK  212  A    between atoms: _497  and  _500
REMARK  213  A    between atoms: _500  and  _501
REMARK  214  A    between atoms: _504  and  _506
REMARK  215  A    between atoms: _506  and  _507
REMARK  216  A    between atoms: _506  and  _509
REMARK  217  A    between atoms: _509  and  _510
REMARK  218  A    between atoms: _516  and  _518
REMARK  219  A    between atoms: _518  and  _519
REMARK  220  A    between atoms: _521  and  _523
REMARK  221  A    between atoms: _523  and  _524
REMARK  222  A    between atoms: _523  and  _526
REMARK  223  A    between atoms: _526  and  _527
REMARK                            x       y       z     vdW  Elec       q    Type
REMARK                         _______ _______ _______ _____ _____    ______ ____
ROOT
ATOM      1  CA  ASP A   1       8.115   6.802   3.997  0.00  0.00    +0.144 C 
ENDROOT
BRANCH   1   2
ATOM      2  N   ASP A   1       9.292   7.593   3.659  0.00  0.00    -0.239 NA
ATOM      3  H   ASP A   1       9.561   8.416   4.235  0.00  0.00    +0.142 HD
ENDBRANCH   1   2
BRANCH   1   4
ATOM      4  C   ASP A   1       6.986   7.645   4.559  0.00  0.00    +0.225 C 
ATOM      5  O   ASP A   1       6.390   7.319   5.584  0.00  0.00    -0.287 OA
ENDBRANCH   1   4
BRANCH   1   6
ATOM      6  CB  ASP A   1       8.473   5.667   4.961  0.00  0.00    +0.139 C 
BRANCH   6   7
ATOM      7  CG  ASP A   1       7.402   4.582   5.003  0.00  0.00    +0.367 C 
ATOM      8  OD2 ASP A   1       7.297   3.883   6.029  0.00  0.00    -0.246 OA
ATOM      9  OD1 ASP A   1       6.672   4.422   3.996  0.00  0.00    -0.246 OA
ENDBRANCH   6   7
ENDBRANCH   1   6
TORSDOF 4
REMARK  Name = ../refined-set-2016/1nvq/1nvq_pocket.pdb
REMARK  223 active torsions:
REMARK  status: ('A' for Active; 'I' for Inactive)
REMARK    1  A    between atoms: _1  and  _3
REMARK    2  A    between atoms: _3  and  _4
REMARK    3  A    between atoms: _3  and  _6
REMARK    4  A    between atoms: _6  and  _7
REMARK    5  A    between atoms: _7  and  _8
REMARK    6  A    between atoms: _13  and  _15
REMARK    7  A    between atoms: _15  and  _16
REMARK    8  A    between atoms: _15  and  _18
REMARK    9  A    between atoms: _18  and  _19
REMARK   10  A    between atoms: _22  and  _24
REMARK   11  A    between atoms: _24  and  _25
REMARK   12  A    between atoms: _24  and  _27
REMARK   13  A    between atoms: _27  and  _28
REMARK   14  A    between atoms: _31  and  _33
REMARK   15  A    between atoms: _33  and  _34
REMARK   16  A    between atoms: _36  and  _38
REMARK   17  A    between atoms: _38  and  _39
REMARK   18  A    between atoms: _38  and  _41
REMARK   19  A    between atoms: _41  and  _42
REMARK   20  A    between atoms: _42  and  _43
REMARK   21  A    between atoms: _46  and  _48
REMARK   22  A    between atoms: _48  and  _49
REMARK   23  A    between atoms: _51  and  _53
REMARK   24  A    between atoms: _53  and  _54
REMARK   25  A    between atoms: _53  and  _56
REMARK   26  A    between atoms: _56  and  _57
REMARK   27  A    between atoms: _62  and  _63
REMARK   28  A    between atoms: _65  and  _67
REMARK   29  A    between atoms: _67  and  _68
REMARK   30  A    between atoms: _70  and  _72
REMARK   31  A    between atoms: _72  and  _73
REMARK   32  A    between atoms: _72  and  _75
REMARK   33  A    between atoms: _75  and  _76
REMARK   34  A    between atoms: _76  and  _77
REMARK   35  A    between atoms: _80  and  _82
REMARK   36  A    between atoms: _82  and  _83
REMARK   37  A    between atoms: _82  and  _85
REMARK   38  A    between atoms: _88  and  _90
REMARK   39  A    between atoms: _90  and  _91
REMARK   40  A    between atoms: _90  and  _93
REMARK   41  A    between atoms: _93  and  _94
REMARK   42  A    between atoms: _94  and  _95
REMARK   43  A    between atoms: _100  and  _102
REMARK   44  A    between atoms: _102  and  _103
REMARK   45  A    between atoms: _102  and  _105
REMARK   46  A    between atoms: _105  and  _106
REMARK   47  A    between atoms: _109  and  _111
REMARK   48  A    between atoms: _111  and  _112
REMARK   49  A    between atoms: _115  and  _117
REMARK   50  A    between atoms: _117  and  _118
REMARK   51  A    between atoms: _121  and  _123
REMARK   52  A    between atoms: _123  and  _124
REMARK   53  A    between atoms: _123  and  _126
REMARK   54  A    between atoms: _129  and  _131
REMARK   55  A    between atoms: _131  and  _132
REMARK   56  A    between atoms: _135  and  _137
REMARK   57  A    between atoms: _137  and  _138
REMARK   58  A    between atoms: _137  and  _140
REMARK   59  A    between atoms: _143  and  _145
REMARK   60  A    between atoms: _145  and  _146
REMARK   61  A    between atoms: _145  and  _148
REMARK   62  A    between atoms: _148  and  _149
REMARK   63  A    between atoms: _149  and  _150
REMARK   64  A    between atoms: _150  and  _151
REMARK   65  A    between atoms: _151  and  _152
REMARK   66  A    between atoms: _156  and  _158
REMARK   67  A    between atoms: _158  and  _159
REMARK   68  A    between atoms: _158  and  _161
REMARK   69  A    between atoms: _161  and  _162
REMARK   70  A    between atoms: _165  and  _167
REMARK   71  A    between atoms: _167  and  _168
REMARK   72  A    between atoms: _167  and  _170
REMARK   73  A    between atoms: _173  and  _175
REMARK   74  A    between atoms: _175  and  _176
REMARK   75  A    between atoms: _175  and  _178
REMARK   76  A    between atoms: _178  and  _179
REMARK   77  A    between atoms: _179  and  _180
REMARK   78  A    between atoms: _183  and  _185
REMARK   79  A    between atoms: _185  and  _186
REMARK   80  A    between atoms: _185  and  _188
REMARK   81  A    between atoms: _188  and  _189
REMARK   82  A    between atoms: _194  and  _196
REMARK   83  A    between atoms: _196  and  _197
REMARK   84  A    between atoms: _196  and  _199
REMARK   85  A    between atoms: _202  and  _204
REMARK   86  A    between atoms: _204  and  _205
REMARK   87  A    between atoms: _204  and  _207
REMARK   88  A    between atoms: _210  and  _212
REMARK   89  A    between atoms: _212  and  _213
REMARK   90  A    between atoms: _212  and  _215
REMARK   91  A    between atoms: _215  and  _216
REMARK   92  A    between atoms: _216  and  _217
REMARK   93  A    between atoms: _217  and  _218
REMARK   94  A    between atoms: _218  and  _219
REMARK   95  A    between atoms: _223  and  _225
REMARK   96  A    between atoms: _225  and  _226
REMARK   97  A    between atoms: _225  and  _228
REMARK   98  A    between atoms: _228  and  _229
REMARK   99  A    between atoms: _235  and  _237
REMARK  100  A    between atoms: _237  and  _238
REMARK  101  A    between atoms: _237  and  _240
REMARK  102  A    between atoms: _240  and  _241
REMARK  103  A    between atoms: _246  and  _247
REMARK  104  A    between atoms: _249  and  _251
REMARK  105  A    between atoms: _251  and  _252
REMARK  106  A    between atoms: _251  and  _254
REMARK  107  A    between atoms: _254  and  _255
REMARK  108  A    between atoms: _258  and  _260
REMARK  109  A    between atoms: _260  and  _261
REMARK  110  A    between atoms: _260  and  _263
REMARK  111  A    between atoms: _263  and  _264
REMARK  112  A    between atoms: _270  and  _272
REMARK  113  A    between atoms: _272  and  _273
REMARK  114  A    between atoms: _272  and  _275
REMARK  115  A    between atoms: _275  and  _276
REMARK  116  A    between atoms: _279  and  _281
REMARK  117  A    between atoms: _281  and  _282
REMARK  118  A    between atoms: _281  and  _284
REMARK  119  A    between atoms: _284  and  _285
REMARK  120  A    between atoms: _285  and  _286
REMARK  121  A    between atoms: _289  and  _291
REMARK  122  A    between atoms: _291  and  _292
REMARK  123  A    between atoms: _291  and  _294
REMARK  124  A    between atoms: _294  and  _295
REMARK  125  A    between atoms: _300  and  _301
REMARK  126  A    between atoms: _303  and  _305
REMARK  127  A    between atoms: _305  and  _306
REMARK  128  A    between atoms: _305  and  _308
REMARK  129  A    between atoms: _310  and  _312
REMARK  130  A    between atoms: _312  and  _313
REMARK  131  A    between atoms: _312  and  _315
REMARK  132  A    between atoms: _315  and  _316
REMARK  133  A    between atoms: _318  and  _320
REMARK  134  A    between atoms: _320  and  _321
REMARK  135  A    between atoms: _323  and  _325
REMARK  136  A    between atoms: _325  and  _326
REMARK  137  A    between atoms: _328  and  _330
REMARK  138  A    between atoms: _330  and  _331
REMARK  139  A    between atoms: _330  and  _333
REMARK  140  A    between atoms: _333  and  _334
REMARK  141  A    between atoms: _334  and  _335
REMARK  142  A    between atoms: _338  and  _340
REMARK  143  A    between atoms: _340  and  _341
REMARK  144  A    between atoms: _340  and  _343
REMARK  145  A    between atoms: _343  and  _344
REMARK  146  A    between atoms: _347  and  _349
REMARK  147  A    between atoms: _349  and  _350
REMARK  148  A    between atoms: _349  and  _352
REMARK  149  A    between atoms: _352  and  _353
REMARK  150  A    between atoms: _359  and  _361
REMARK  151  A    between atoms: _361  and  _362
REMARK  152  A    between atoms: _361  and  _364
REMARK  153  A    between atoms: _364  and  _365
REMARK  154  A    between atoms: _368  and  _370
REMARK  155  A    between atoms: _370  and  _371
REMARK  156  A    between atoms: _370  and  _373
REMARK  157  A    between atoms: _373  and  _374
REMARK  158  A    between atoms: _379  and  _381
REMARK  159  A    between atoms: _381  and  _382
REMARK  160  A    between atoms: _381  and  _384
REMARK  161  A    between atoms: _384  and  _385
REMARK  162  A    between atoms: _388  and  _390
REMARK  163  A    between atoms: _390  and  _391
REMARK  164  A    between atoms: _390  and  _393
REMARK  165  A    between atoms: _393  and  _394
REMARK  166  A    between atoms: _394  and  _395
REMARK  167  A    between atoms: _395  and  _396
REMARK  168  A    between atoms: _396  and  _397
REMARK  169  A    between atoms: _402  and  _403
REMARK  170  A    between atoms: _408  and  _410
REMARK  171  A    between atoms: _410  and  _411
REMARK  172  A    between atoms: _410  and  _413
REMARK  173  A    between atoms: _413  and  _414
REMARK  174  A    between atoms: _414  and  _415
REMARK  175  A    between atoms: _418  and  _420
REMARK  176  A    between atoms: _420  and  _421
REMARK  177  A    between atoms: _420  and  _423
REMARK  178  A    between atoms: _423  and  _424
REMARK  179  A    between atoms: _429  and  _431
REMARK  180  A    between atoms: _431  and  _432
REMARK  181  A    between atoms: _431  and  _434
REMARK  182  A    between atoms: _434  and  _435
REMARK  183  A    between atoms: _438  and  _440
REMARK  184  A    between atoms: _440  and  _441
REMARK  185  A    between atoms: _440  and  _443
REMARK  186  A    between atoms: _443  and  _444
REMARK  187  A    between atoms: _447  and  _449
REMARK  188  A    between atoms: _449  and  _450
REMARK  189  A    between atoms: _449  and  _452
REMARK  190  A    between atoms: _452  and  _453
REMARK  191  A    between atoms: _456  and  _458
REMARK  192  A    between atoms: _458  and  _459
REMARK  193  A    between atoms: _458  and  _461
REMARK  194  A    between atoms: _461  and  _462
REMARK  195  A    between atoms: _465  and  _467
REMARK  196  A    between atoms: _467  and  _468
REMARK  197  A    between atoms: _467  and  _470
REMARK  198  A    between atoms: _470  and  _471
REMARK  199  A    between atoms: _471  and  _472
REMARK  200  A    between atoms: _472  and  _473
REMARK  201  A    between atoms: _473  and  _474
REMARK  202  A    between atoms: _478  and  _480
REMARK  203  A    between atoms: _480  and  _481
REMARK  204  A    between atoms: _480  and  _483
REMARK  205  A    between atoms: _483  and  _484
REMARK  206  A    between atoms: _487  and  _489
REMARK  207  A    between atoms: _489  and  _490
REMARK  208  A    between atoms: _489  and  _492
REMARK  209  A    between atoms: _492  and  _493
REMARK  210  A    between atoms: _495  and  _497
REMARK  211  A    between atoms: _497  and  _498
REMARK  212  A    between atoms: _497  and  _500
REMARK  213  A    between atoms: _500  and  _501
REMARK  214  A    between atoms: _504  and  _506
REMARK  215  A    between atoms: _506  and  _507
REMARK  216  A    between atoms: _506  and  _509
REMARK  217  A    between atoms: _509  and  _510
REMARK  218  A    between atoms: _516  and  _518
REMARK  219  A    between atoms: _518  and  _519
REMARK  220  A    between atoms: _521  and  _523
REMARK  221  A    between atoms: _523  and  _524
REMARK  222  A    between atoms: _523  and  _526
REMARK  223  A    between atoms: _526  and  _527
REMARK                            x       y       z     vdW  Elec       q    Type
REMARK                         _______ _______ _______ _____ _____    ______ ____
ROOT
ATOM      1  CA  ASN A   4       3.849   8.300  10.154  0.00  0.00    +0.158 C 
ENDROOT
BRANCH   1   4
ATOM      2  C   GLU A   3       1.790   7.033  10.480  0.00  0.00    +0.241 C 
ATOM      3  O   GLU A   3       2.073   6.778  11.655  0.00  0.00    -0.273 OA
ATOM      4  N   ASN A   4       2.575   7.758   9.683  0.00  0.00    -0.297 N 
ATOM      5  H   ASN A   4       2.275   7.942   8.704  0.00  0.00    +0.150 HD
BRANCH   2   6
ATOM      6  CA  GLU A   3       0.489   6.514   9.873  0.00  0.00    +0.149 C 
BRANCH   6   9
ATOM      7  C   PRO A   2      -0.344   8.495   8.741  0.00  0.00    +0.241 C 
ATOM      8  O   PRO A   2      -0.453   9.108   9.797  0.00  0.00    -0.273 OA
ATOM      9  N   GLU A   3       0.103   7.245   8.672  0.00  0.00    -0.297 N 
ATOM     10  H   GLU A   3       0.179   6.780   7.745  0.00  0.00    +0.150 HD
BRANCH   7  14
ATOM     11  C   LYS A   1       1.414   8.732   6.237  0.00  0.00    +0.241 C 
ATOM     12  O   LYS A   1       2.081   8.998   7.235  0.00  0.00    -0.273 OA
ATOM     13  N   PRO A   2       0.068   8.777   6.246  0.00  0.00    -0.272 N 
ATOM     14  CA  PRO A   2      -0.716   9.166   7.429  0.00  0.00    +0.152 C 
ATOM     15  CB  PRO A   2      -2.158   8.869   7.011  0.00  0.00    +0.031 C 
ATOM     16  CG  PRO A   2      -2.119   9.089   5.505  0.00  0.00    +0.024 C 
ATOM     17  CD  PRO A   2      -0.824   8.380   5.142  0.00  0.00    +0.094 C 
BRANCH  11  18
ATOM     18  CA  LYS A   1       2.111   8.331   4.933  0.00  0.00    +0.145 C 
BRANCH  18  19
ATOM     19  N   LYS A   1       3.456   8.896   5.009  0.00  0.00    -0.238 NA
ATOM     20  H   LYS A   1       3.798   9.229   5.933  0.00  0.00    +0.142 HD
ENDBRANCH  18  19
BRANCH  18  21
ATOM     21  CB  LYS A   1       2.173   6.801   4.767  0.00  0.00    +0.026 C 
BRANCH  21  22
ATOM     22  CG  LYS A   1       3.038   6.064   5.787  0.00  0.00    -0.000 C 
BRANCH  22  23
ATOM     23  CD  LYS A   1       3.112   4.566   5.456  0.00  0.00    -0.024 C 
BRANCH  23  24
ATOM     24  CE  LYS A   1       3.913   3.795   6.497  0.00  0.00    -0.086 C 
BRANCH  24  25
ATOM     25  NZ  LYS A   1       3.959   2.330   6.203  0.00  0.00    +0.380 N 
ATOM     26  HZ1 LYS A   1       4.515   1.847   6.938  0.00  0.00    -0.089 HD
ATOM     27  HZ2 LYS A   1       2.991   1.949   6.192  0.00  0.00    -0.089 HD
ATOM     28  HZ3 LYS A   1       4.403   2.178   5.275  0.00  0.00    -0.089 HD
ENDBRANCH  24  25
ENDBRANCH  23  24
ENDBRANCH  22  23
ENDBRANCH  21  22
ENDBRANCH  18  21
ENDBRANCH  11  18
ENDBRANCH   7  14
ENDBRANCH   6   9
BRANCH   6  29
ATOM     29  CB  GLU A   3       0.626   5.015   9.563  0.00  0.00    +0.041 C 
BRANCH  29  30
ATOM     30  CG  GLU A   3      -0.639   4.396   8.986  0.00  0.00    +0.116 C 
BRANCH  30  31
ATOM     31  CD  GLU A   3      -0.654   4.363   7.460  0.00  0.00    +0.365 C 
ATOM     32  OE2 GLU A   3      -1.174   3.369   6.908  0.00  0.00    -0.246 OA
ATOM     33  OE1 GLU A   3      -0.167   5.321   6.814  0.00  0.00    -0.246 OA
ENDBRANCH  30  31
ENDBRANCH  29  30
ENDBRANCH   6  29
ENDBRANCH   2   6
ENDBRANCH   1   4
BRANCH   1  34
ATOM     34  C   ASN A   4       3.808   9.799  10.399  0.00  0.00    +0.241 C 
ATOM     35  O   ASN A   4       4.842  10.416  10.680  0.00  0.00    -0.273 OA
ATOM     36  N   LEU A   5       2.625  10.387  10.256  0.00  0.00    -0.297 N 
ATOM     37  H   LEU A   5       1.807   9.816   9.963  0.00  0.00    +0.150 HD
BRANCH  36  38
ATOM     38  CA  LEU A   5       2.445  11.816  10.500  0.00  0.00    +0.149 C 
BRANCH  38  39
ATOM     39  C   LEU A   5       1.631  11.894  11.790  0.00  0.00    +0.241 C 
ATOM     40  N   LEU A   6       2.271  12.358  12.857  0.00  0.00    -0.297 N 
ATOM     41  H   LEU A   6       3.259  12.668  12.758  0.00  0.00    +0.150 HD
ATOM     42  O   LEU A   5       0.464  11.511  11.821  0.00  0.00    -0.273 OA
BRANCH  40  43
ATOM     43  CA  LEU A   6       1.630  12.445  14.163  0.00  0.00    +0.149 C 
BRANCH  43  44
ATOM     44  C   LEU A   6       1.130  13.842  14.498  0.00  0.00    +0.241 C 
ATOM     45  N   LEU A   7       0.234  13.911  15.479  0.00  0.00    -0.297 N 
ATOM     46  H   LEU A   7      -0.056  13.034  15.958  0.00  0.00    +0.150 HD
ATOM     47  O   LEU A   6       1.538  14.825  13.880  0.00  0.00    -0.273 OA
BRANCH  45  48
ATOM     48  CA  LEU A   7      -0.353  15.170  15.904  0.00  0.00    +0.149 C 
BRANCH  48  49
ATOM     49  C   LEU A   7      -0.085  15.403  17.394  0.00  0.00    +0.241 C 
ATOM     50  O   LEU A   7      -0.117  14.456  18.188  0.00  0.00    -0.273 OA
ATOM     51  N   ASP A   8       0.198  16.650  17.769  0.00  0.00    -0.298 N 
ATOM     52  H   ASP A   8       0.260  17.403  17.054  0.00  0.00    +0.150 HD
BRANCH  51  53
ATOM     53  CA  ASP A   8       0.422  16.968  19.178  0.00  0.00    +0.148 C 
BRANCH  53  54
ATOM     54  C   ASP A   8      -0.929  17.343  19.770  0.00  0.00    +0.227 C 
ATOM     55  O   ASP A   8      -1.953  17.210  19.095  0.00  0.00    -0.286 OA
ENDBRANCH  53  54
BRANCH  53  56
ATOM     56  CB  ASP A   8       1.428  18.119  19.343  0.00  0.00    +0.142 C 
BRANCH  56  57
ATOM     57  CG  ASP A   8       0.908  19.449  18.830  0.00  0.00    +0.367 C 
ATOM     58  OD2 ASP A   8       1.670  20.430  18.903  0.00  0.00    -0.246 OA
ATOM     59  OD1 ASP A   8      -0.244  19.526  18.357  0.00  0.00    -0.246 OA
ENDBRANCH  56  57
ENDBRANCH  53  56
ENDBRANCH  51  53
ENDBRANCH  48  49
BRANCH  48  60
ATOM     60  CB  LEU A   7      -1.866  15.140  15.661  0.00  0.00    +0.029 C 
BRANCH  60  61
ATOM     61  CG  LEU A   7      -2.354  14.850  14.236  0.00  0.00    +0.002 C 
ATOM     62  CD2 LEU A   7      -3.884  14.750  14.219  0.00  0.00    +0.000 C 
ATOM     63  CD1 LEU A   7      -1.873  15.947  13.295  0.00  0.00    +0.000 C 
ENDBRANCH  60  61
ENDBRANCH  48  60
ENDBRANCH  45  48
ENDBRANCH  43  44
BRANCH  43  64
ATOM     64  CB  LEU A   6       2.602  11.960  15.245  0.00  0.00    +0.029 C 
BRANCH  64  65
ATOM     65  CG  LEU A   6       3.225  10.591  14.940  0.00  0.00    +0.002 C 
ATOM     66  CD2 LEU A   6       4.312  10.284  15.969  0.00  0.00    +0.000 C 
ATOM     67  CD1 LEU A   6       2.142   9.509  14.928  0.00  0.00    +0.000 C 
ENDBRANCH  64  65
ENDBRANCH  43  64
ENDBRANCH  40  43
ENDBRANCH  38  39
BRANCH  38  68
ATOM     68  CB  LEU A   5       1.704  12.473   9.329  0.00  0.00    +0.029 C 
BRANCH  68  69
ATOM     69  CG  LEU A   5       2.484  12.370   8.008  0.00  0.00    +0.002 C 
ATOM     70  CD2 LEU A   5       3.814  13.118   8.152  0.00  0.00    +0.000 C 
ATOM     71  CD1 LEU A   5       1.660  12.928   6.841  0.00  0.00    +0.000 C 
ENDBRANCH  68  69
ENDBRANCH  38  68
ENDBRANCH  36  38
ENDBRANCH   1  34
BRANCH   1  72
ATOM     72  CB  ASN A   4       4.977   7.996   9.165  0.00  0.00    +0.114 C 
BRANCH  72  73
ATOM     73  CG  ASN A   4       5.423   6.552   9.216  0.00  0.00    +0.222 C 
ATOM     74  OD1 ASN A   4       5.237   5.869  10.226  0.00  0.00    -0.275 OA
ATOM     75  ND2 ASN A   4       6.041   6.084   8.135  0.00  0.00    -0.329 N 
ATOM     76 HD21 ASN A   4       6.390   5.104   8.119  0.00  0.00    +0.145 HD
ATOM     77 HD22 ASN A   4       6.175   6.698   7.306  0.00  0.00    +0.145 HD
ENDBRANCH  72  73
ENDBRANCH   1  72
TORSDOF 33
REMARK  Name = ../refined-set-2016/1nvq/1nvq_pocket.pdb
REMARK  223 active torsions:
REMARK  status: ('A' for Active; 'I' for Inactive)
REMARK    1  A    between atoms: _1  and  _3
REMARK    2  A    between atoms: _3  and  _4
REMARK    3  A    between atoms: _3  and  _6
REMARK    4  A    between atoms: _6  and  _7
REMARK    5  A    between atoms: _7  and  _8
REMARK    6  A    between atoms: _13  and  _15
REMARK    7  A    between atoms: _15  and  _16
REMARK    8  A    between atoms: _15  and  _18
REMARK    9  A    between atoms: _18  and  _19
REMARK   10  A    between atoms: _22  and  _24
REMARK   11  A    between atoms: _24  and  _25
REMARK   12  A    between atoms: _24  and  _27
REMARK   13  A    between atoms: _27  and  _28
REMARK   14  A    between atoms: _31  and  _33
REMARK   15  A    between atoms: _33  and  _34
REMARK   16  A    between atoms: _36  and  _38
REMARK   17  A    between atoms: _38  and  _39
REMARK   18  A    between atoms: _38  and  _41
REMARK   19  A    between atoms: _41  and  _42
REMARK   20  A    between atoms: _42  and  _43
REMARK   21  A    between atoms: _46  and  _48
REMARK   22  A    between atoms: _48  and  _49
REMARK   23  A    between atoms: _51  and  _53
REMARK   24  A    between atoms: _53  and  _54
REMARK   25  A    between atoms: _53  and  _56
REMARK   26  A    between atoms: _56  and  _57
REMARK   27  A    between atoms: _62  and  _63
REMARK   28  A    between atoms: _65  and  _67
REMARK   29  A    between atoms: _67  and  _68
REMARK   30  A    between atoms: _70  and  _72
REMARK   31  A    between atoms: _72  and  _73
REMARK   32  A    between atoms: _72  and  _75
REMARK   33  A    between atoms: _75  and  _76
REMARK   34  A    between atoms: _76  and  _77
REMARK   35  A    between atoms: _80  and  _82
REMARK   36  A    between atoms: _82  and  _83
REMARK   37  A    between atoms: _82  and  _85
REMARK   38  A    between atoms: _88  and  _90
REMARK   39  A    between atoms: _90  and  _91
REMARK   40  A    between atoms: _90  and  _93
REMARK   41  A    between atoms: _93  and  _94
REMARK   42  A    between atoms: _94  and  _95
REMARK   43  A    between atoms: _100  and  _102
REMARK   44  A    between atoms: _102  and  _103
REMARK   45  A    between atoms: _102  and  _105
REMARK   46  A    between atoms: _105  and  _106
REMARK   47  A    between atoms: _109  and  _111
REMARK   48  A    between atoms: _111  and  _112
REMARK   49  A    between atoms: _115  and  _117
REMARK   50  A    between atoms: _117  and  _118
REMARK   51  A    between atoms: _121  and  _123
REMARK   52  A    between atoms: _123  and  _124
REMARK   53  A    between atoms: _123  and  _126
REMARK   54  A    between atoms: _129  and  _131
REMARK   55  A    between atoms: _131  and  _132
REMARK   56  A    between atoms: _135  and  _137
REMARK   57  A    between atoms: _137  and  _138
REMARK   58  A    between atoms: _137  and  _140
REMARK   59  A    between atoms: _143  and  _145
REMARK   60  A    between atoms: _145  and  _146
REMARK   61  A    between atoms: _145  and  _148
REMARK   62  A    between atoms: _148  and  _149
REMARK   63  A    between atoms: _149  and  _150
REMARK   64  A    between atoms: _150  and  _151
REMARK   65  A    between atoms: _151  and  _152
REMARK   66  A    between atoms: _156  and  _158
REMARK   67  A    between atoms: _158  and  _159
REMARK   68  A    between atoms: _158  and  _161
REMARK   69  A    between atoms: _161  and  _162
REMARK   70  A    between atoms: _165  and  _167
REMARK   71  A    between atoms: _167  and  _168
REMARK   72  A    between atoms: _167  and  _170
REMARK   73  A    between atoms: _173  and  _175
REMARK   74  A    between atoms: _175  and  _176
REMARK   75  A    between atoms: _175  and  _178
REMARK   76  A    between atoms: _178  and  _179
REMARK   77  A    between atoms: _179  and  _180
REMARK   78  A    between atoms: _183  and  _185
REMARK   79  A    between atoms: _185  and  _186
REMARK   80  A    between atoms: _185  and  _188
REMARK   81  A    between atoms: _188  and  _189
REMARK   82  A    between atoms: _194  and  _196
REMARK   83  A    between atoms: _196  and  _197
REMARK   84  A    between atoms: _196  and  _199
REMARK   85  A    between atoms: _202  and  _204
REMARK   86  A    between atoms: _204  and  _205
REMARK   87  A    between atoms: _204  and  _207
REMARK   88  A    between atoms: _210  and  _212
REMARK   89  A    between atoms: _212  and  _213
REMARK   90  A    between atoms: _212  and  _215
REMARK   91  A    between atoms: _215  and  _216
REMARK   92  A    between atoms: _216  and  _217
REMARK   93  A    between atoms: _217  and  _218
REMARK   94  A    between atoms: _218  and  _219
REMARK   95  A    between atoms: _223  and  _225
REMARK   96  A    between atoms: _225  and  _226
REMARK   97  A    between atoms: _225  and  _228
REMARK   98  A    between atoms: _228  and  _229
REMARK   99  A    between atoms: _235  and  _237
REMARK  100  A    between atoms: _237  and  _238
REMARK  101  A    between atoms: _237  and  _240
REMARK  102  A    between atoms: _240  and  _241
REMARK  103  A    between atoms: _246  and  _247
REMARK  104  A    between atoms: _249  and  _251
REMARK  105  A    between atoms: _251  and  _252
REMARK  106  A    between atoms: _251  and  _254
REMARK  107  A    between atoms: _254  and  _255
REMARK  108  A    between atoms: _258  and  _260
REMARK  109  A    between atoms: _260  and  _261
REMARK  110  A    between atoms: _260  and  _263
REMARK  111  A    between atoms: _263  and  _264
REMARK  112  A    between atoms: _270  and  _272
REMARK  113  A    between atoms: _272  and  _273
REMARK  114  A    between atoms: _272  and  _275
REMARK  115  A    between atoms: _275  and  _276
REMARK  116  A    between atoms: _279  and  _281
REMARK  117  A    between atoms: _281  and  _282
REMARK  118  A    between atoms: _281  and  _284
REMARK  119  A    between atoms: _284  and  _285
REMARK  120  A    between atoms: _285  and  _286
REMARK  121  A    between atoms: _289  and  _291
REMARK  122  A    between atoms: _291  and  _292
REMARK  123  A    between atoms: _291  and  _294
REMARK  124  A    between atoms: _294  and  _295
REMARK  125  A    between atoms: _300  and  _301
REMARK  126  A    between atoms: _303  and  _305
REMARK  127  A    between atoms: _305  and  _306
REMARK  128  A    between atoms: _305  and  _308
REMARK  129  A    between atoms: _310  and  _312
REMARK  130  A    between atoms: _312  and  _313
REMARK  131  A    between atoms: _312  and  _315
REMARK  132  A    between atoms: _315  and  _316
REMARK  133  A    between atoms: _318  and  _320
REMARK  134  A    between atoms: _320  and  _321
REMARK  135  A    between atoms: _323  and  _325
REMARK  136  A    between atoms: _325  and  _326
REMARK  137  A    between atoms: _328  and  _330
REMARK  138  A    between atoms: _330  and  _331
REMARK  139  A    between atoms: _330  and  _333
REMARK  140  A    between atoms: _333  and  _334
REMARK  141  A    between atoms: _334  and  _335
REMARK  142  A    between atoms: _338  and  _340
REMARK  143  A    between atoms: _340  and  _341
REMARK  144  A    between atoms: _340  and  _343
REMARK  145  A    between atoms: _343  and  _344
REMARK  146  A    between atoms: _347  and  _349
REMARK  147  A    between atoms: _349  and  _350
REMARK  148  A    between atoms: _349  and  _352
REMARK  149  A    between atoms: _352  and  _353
REMARK  150  A    between atoms: _359  and  _361
REMARK  151  A    between atoms: _361  and  _362
REMARK  152  A    between atoms: _361  and  _364
REMARK  153  A    between atoms: _364  and  _365
REMARK  154  A    between atoms: _368  and  _370
REMARK  155  A    between atoms: _370  and  _371
REMARK  156  A    between atoms: _370  and  _373
REMARK  157  A    between atoms: _373  and  _374
REMARK  158  A    between atoms: _379  and  _381
REMARK  159  A    between atoms: _381  and  _382
REMARK  160  A    between atoms: _381  and  _384
REMARK  161  A    between atoms: _384  and  _385
REMARK  162  A    between atoms: _388  and  _390
REMARK  163  A    between atoms: _390  and  _391
REMARK  164  A    between atoms: _390  and  _393
REMARK  165  A    between atoms: _393  and  _394
REMARK  166  A    between atoms: _394  and  _395
REMARK  167  A    between atoms: _395  and  _396
REMARK  168  A    between atoms: _396  and  _397
REMARK  169  A    between atoms: _402  and  _403
REMARK  170  A    between atoms: _408  and  _410
REMARK  171  A    between atoms: _410  and  _411
REMARK  172  A    between atoms: _410  and  _413
REMARK  173  A    between atoms: _413  and  _414
REMARK  174  A    between atoms: _414  and  _415
REMARK  175  A    between atoms: _418  and  _420
REMARK  176  A    between atoms: _420  and  _421
REMARK  177  A    between atoms: _420  and  _423
REMARK  178  A    between atoms: _423  and  _424
REMARK  179  A    between atoms: _429  and  _431
REMARK  180  A    between atoms: _431  and  _432
REMARK  181  A    between atoms: _431  and  _434
REMARK  182  A    between atoms: _434  and  _435
REMARK  183  A    between atoms: _438  and  _440
REMARK  184  A    between atoms: _440  and  _441
REMARK  185  A    between atoms: _440  and  _443
REMARK  186  A    between atoms: _443  and  _444
REMARK  187  A    between atoms: _447  and  _449
REMARK  188  A    between atoms: _449  and  _450
REMARK  189  A    between atoms: _449  and  _452
REMARK  190  A    between atoms: _452  and  _453
REMARK  191  A    between atoms: _456  and  _458
REMARK  192  A    between atoms: _458  and  _459
REMARK  193  A    between atoms: _458  and  _461
REMARK  194  A    between atoms: _461  and  _462
REMARK  195  A    between atoms: _465  and  _467
REMARK  196  A    between atoms: _467  and  _468
REMARK  197  A    between atoms: _467  and  _470
REMARK  198  A    between atoms: _470  and  _471
REMARK  199  A    between atoms: _471  and  _472
REMARK  200  A    between atoms: _472  and  _473
REMARK  201  A    between atoms: _473  and  _474
REMARK  202  A    between atoms: _478  and  _480
REMARK  203  A    between atoms: _480  and  _481
REMARK  204  A    between atoms: _480  and  _483
REMARK  205  A    between atoms: _483  and  _484
REMARK  206  A    between atoms: _487  and  _489
REMARK  207  A    between atoms: _489  and  _490
REMARK  208  A    between atoms: _489  and  _492
REMARK  209  A    between atoms: _492  and  _493
REMARK  210  A    between atoms: _495  and  _497
REMARK  211  A    between atoms: _497  and  _498
REMARK  212  A    between atoms: _497  and  _500
REMARK  213  A    between atoms: _500  and  _501
REMARK  214  A    between atoms: _504  and  _506
REMARK  215  A    between atoms: _506  and  _507
REMARK  216  A    between atoms: _506  and  _509
REMARK  217  A    between atoms: _509  and  _510
REMARK  218  A    between atoms: _516  and  _518
REMARK  219  A    between atoms: _518  and  _519
REMARK  220  A    between atoms: _521  and  _523
REMARK  221  A    between atoms: _523  and  _524
REMARK  222  A    between atoms: _523  and  _526
REMARK  223  A    between atoms: _526  and  _527
REMARK                            x       y       z     vdW  Elec       q    Type
REMARK                         _______ _______ _______ _____ _____    ______ ____
ROOT
ATOM      1  CA  ASP A   4      10.020   7.695  12.286  0.00  0.00    +0.160 C 
ENDROOT
BRANCH   1   2
ATOM      2  C   ASP A   4      10.993   7.916  11.131  0.00  0.00    +0.241 C 
ATOM      3  N   PHE A   5      12.256   8.163  11.460  0.00  0.00    -0.297 N 
ATOM      4  H   PHE A   5      12.526   8.198  12.464  0.00  0.00    +0.150 HD
ATOM      5  O   ASP A   4      10.608   7.855   9.964  0.00  0.00    -0.273 OA
BRANCH   3   6
ATOM      6  CA  PHE A   5      13.268   8.386  10.438  0.00  0.00    +0.153 C 
BRANCH   6   7
ATOM      7  C   PHE A   5      14.114   7.145  10.220  0.00  0.00    +0.241 C 
ATOM      8  N   GLY A   6      13.501   5.996  10.483  0.00  0.00    -0.295 N 
ATOM      9  H   GLY A   6      12.515   6.007  10.813  0.00  0.00    +0.150 HD
ATOM     10  O   PHE A   5      15.271   7.219   9.806  0.00  0.00    -0.273 OA
BRANCH   8  11
ATOM     11  CA  GLY A   6      14.182   4.726  10.319  0.00  0.00    +0.176 C 
BRANCH  11  12
ATOM     12  C   GLY A   6      14.496   4.371   8.873  0.00  0.00    +0.243 C 
ATOM     13  O   GLY A   6      15.332   3.518   8.627  0.00  0.00    -0.273 OA
ATOM     14  N   LEU A   7      13.828   5.013   7.918  0.00  0.00    -0.298 N 
ATOM     15  H   LEU A   7      13.115   5.722   8.181  0.00  0.00    +0.150 HD
BRANCH  14  16
ATOM     16  CA  LEU A   7      14.081   4.737   6.502  0.00  0.00    +0.137 C 
BRANCH  16  17
ATOM     17  C   LEU A   7      14.668   5.957   5.806  0.00  0.00    +0.227 C 
ATOM     18  O   LEU A   7      14.916   5.940   4.591  0.00  0.00    -0.286 OA
ENDBRANCH  16  17
BRANCH  16  19
ATOM     19  CB  LEU A   7      12.786   4.332   5.795  0.00  0.00    +0.028 C 
BRANCH  19  20
ATOM     20  CG  LEU A   7      12.125   3.029   6.262  0.00  0.00    +0.002 C 
ATOM     21  CD2 LEU A   7      13.097   1.866   6.080  0.00  0.00    +0.000 C 
ATOM     22  CD1 LEU A   7      10.853   2.785   5.464  0.00  0.00    +0.000 C 
ENDBRANCH  19  20
ENDBRANCH  16  19
ENDBRANCH  14  16
ENDBRANCH  11  12
ENDBRANCH   8  11
ENDBRANCH   6   7
BRANCH   6  23
ATOM     23  CB  PHE A   5      14.122   9.600  10.814  0.00  0.00    +0.055 C 
BRANCH  23  24
ATOM     24  CG  PHE A   5      13.399  10.907  10.632  0.00  0.00    -0.020 A 
ATOM     25  CD2 PHE A   5      12.405  11.300  11.526  0.00  0.00    -0.004 A 
ATOM     26  CE2 PHE A   5      11.658  12.466  11.302  0.00  0.00    -0.000 A 
ATOM     27  CZ  PHE A   5      11.909  13.246  10.178  0.00  0.00    -0.000 A 
ATOM     28  CE1 PHE A   5      12.906  12.864   9.283  0.00  0.00    -0.000 A 
ATOM     29  CD1 PHE A   5      13.645  11.700   9.516  0.00  0.00    -0.004 A 
ENDBRANCH  23  24
ENDBRANCH   6  23
ENDBRANCH   3   6
ENDBRANCH   1   2
BRANCH   1  31
ATOM     30  C   SER A   3       8.492   9.605  11.980  0.00  0.00    +0.243 C 
ATOM     31  N   ASP A   4       9.354   8.918  12.731  0.00  0.00    -0.296 N 
ATOM     32  H   ASP A   4       9.564   9.272  13.686  0.00  0.00    +0.150 HD
ATOM     33  O   SER A   3       8.174   9.284  10.832  0.00  0.00    -0.273 OA
BRANCH  30  34
ATOM     34  CA  SER A   3       7.892  10.839  12.650  0.00  0.00    +0.178 C 
BRANCH  34  37
ATOM     35  C   ILE A   2       7.591  13.078  11.746  0.00  0.00    +0.241 C 
ATOM     36  O   ILE A   2       8.499  13.541  12.447  0.00  0.00    -0.273 OA
ATOM     37  N   SER A   3       7.250  11.792  11.757  0.00  0.00    -0.295 N 
ATOM     38  H   SER A   3       6.506  11.459  11.111  0.00  0.00    +0.150 HD
BRANCH  35  39
ATOM     39  CA  ILE A   2       6.796  13.981  10.807  0.00  0.00    +0.148 C 
BRANCH  39  42
ATOM     40  C   LYS A   1       5.289  14.889  12.471  0.00  0.00    +0.238 C 
ATOM     41  O   LYS A   1       4.745  13.796  12.626  0.00  0.00    -0.274 OA
ATOM     42  N   ILE A   2       6.284  15.080  11.616  0.00  0.00    -0.297 N 
ATOM     43  H   ILE A   2       6.705  16.026  11.521  0.00  0.00    +0.150 HD
BRANCH  40  44
ATOM     44  CA  LYS A   1       4.839  16.096  13.285  0.00  0.00    +0.145 C 
BRANCH  44  45
ATOM     45  N   LYS A   1       3.437  16.397  12.995  0.00  0.00    -0.238 NA
ATOM     46  H   LYS A   1       2.755  15.612  12.991  0.00  0.00    +0.142 HD
ENDBRANCH  44  45
BRANCH  44  47
ATOM     47  CB  LYS A   1       5.013  15.754  14.771  0.00  0.00    +0.026 C 
BRANCH  47  48
ATOM     48  CG  LYS A   1       4.396  16.745  15.742  0.00  0.00    -0.000 C 
BRANCH  48  49
ATOM     49  CD  LYS A   1       5.317  17.920  15.977  0.00  0.00    -0.024 C 
BRANCH  49  50
ATOM     50  CE  LYS A   1       4.751  18.857  17.041  0.00  0.00    -0.086 C 
BRANCH  50  51
ATOM     51  NZ  LYS A   1       5.781  19.848  17.459  0.00  0.00    +0.380 N 
ATOM     52  HZ1 LYS A   1       5.380  20.478  18.183  0.00  0.00    -0.089 HD
ATOM     53  HZ2 LYS A   1       6.604  19.347  17.851  0.00  0.00    -0.089 HD
ATOM     54  HZ3 LYS A   1       6.076  20.409  16.634  0.00  0.00    -0.089 HD
ENDBRANCH  50  51
ENDBRANCH  49  50
ENDBRANCH  48  49
ENDBRANCH  47  48
ENDBRANCH  44  47
ENDBRANCH  40  44
ENDBRANCH  39  42
BRANCH  39  55
ATOM     55  CB  ILE A   2       7.696  14.507   9.675  0.00  0.00    +0.027 C 
ATOM     56  CG2 ILE A   2       8.309  13.333   8.907  0.00  0.00    +0.002 C 
BRANCH  55  57
ATOM     57  CG1 ILE A   2       6.869  15.404   8.740  0.00  0.00    +0.002 C 
ATOM     58  CD1 ILE A   2       7.675  16.067   7.643  0.00  0.00    +0.000 C 
ENDBRANCH  55  57
ENDBRANCH  39  55
ENDBRANCH  35  39
ENDBRANCH  34  37
BRANCH  34  59
ATOM     59  CB  SER A   3       6.876  10.386  13.707  0.00  0.00    +0.166 C 
BRANCH  59  60
ATOM     60  OG  SER A   3       7.433   9.437  14.602  0.00  0.00    -0.380 OA
ATOM     61  H   SER A   3       8.208   9.840  15.068  0.00  0.00    +0.211 HD
ENDBRANCH  59  60
ENDBRANCH  34  59
ENDBRANCH  30  34
ENDBRANCH   1  31
BRANCH   1  62
ATOM     62  CB  ASP A   4       8.978   6.649  11.882  0.00  0.00    +0.143 C 
BRANCH  62  63
ATOM     63  CG  ASP A   4       9.582   5.273  11.679  0.00  0.00    +0.367 C 
ATOM     64  OD2 ASP A   4      10.820   5.160  11.719  0.00  0.00    -0.246 OA
ATOM     65  OD1 ASP A   4       8.814   4.308  11.482  0.00  0.00    -0.246 OA
ENDBRANCH  62  63
ENDBRANCH   1  62
TORSDOF 29
REMARK  Name = ../refined-set-2016/1nvq/1nvq_pocket.pdb
REMARK  223 active torsions:
REMARK  status: ('A' for Active; 'I' for Inactive)
REMARK    1  A    between atoms: _1  and  _3
REMARK    2  A    between atoms: _3  and  _4
REMARK    3  A    between atoms: _3  and  _6
REMARK    4  A    between atoms: _6  and  _7
REMARK    5  A    between atoms: _7  and  _8
REMARK    6  A    between atoms: _13  and  _15
REMARK    7  A    between atoms: _15  and  _16
REMARK    8  A    between atoms: _15  and  _18
REMARK    9  A    between atoms: _18  and  _19
REMARK   10  A    between atoms: _22  and  _24
REMARK   11  A    between atoms: _24  and  _25
REMARK   12  A    between atoms: _24  and  _27
REMARK   13  A    between atoms: _27  and  _28
REMARK   14  A    between atoms: _31  and  _33
REMARK   15  A    between atoms: _33  and  _34
REMARK   16  A    between atoms: _36  and  _38
REMARK   17  A    between atoms: _38  and  _39
REMARK   18  A    between atoms: _38  and  _41
REMARK   19  A    between atoms: _41  and  _42
REMARK   20  A    between atoms: _42  and  _43
REMARK   21  A    between atoms: _46  and  _48
REMARK   22  A    between atoms: _48  and  _49
REMARK   23  A    between atoms: _51  and  _53
REMARK   24  A    between atoms: _53  and  _54
REMARK   25  A    between atoms: _53  and  _56
REMARK   26  A    between atoms: _56  and  _57
REMARK   27  A    between atoms: _62  and  _63
REMARK   28  A    between atoms: _65  and  _67
REMARK   29  A    between atoms: _67  and  _68
REMARK   30  A    between atoms: _70  and  _72
REMARK   31  A    between atoms: _72  and  _73
REMARK   32  A    between atoms: _72  and  _75
REMARK   33  A    between atoms: _75  and  _76
REMARK   34  A    between atoms: _76  and  _77
REMARK   35  A    between atoms: _80  and  _82
REMARK   36  A    between atoms: _82  and  _83
REMARK   37  A    between atoms: _82  and  _85
REMARK   38  A    between atoms: _88  and  _90
REMARK   39  A    between atoms: _90  and  _91
REMARK   40  A    between atoms: _90  and  _93
REMARK   41  A    between atoms: _93  and  _94
REMARK   42  A    between atoms: _94  and  _95
REMARK   43  A    between atoms: _100  and  _102
REMARK   44  A    between atoms: _102  and  _103
REMARK   45  A    between atoms: _102  and  _105
REMARK   46  A    between atoms: _105  and  _106
REMARK   47  A    between atoms: _109  and  _111
REMARK   48  A    between atoms: _111  and  _112
REMARK   49  A    between atoms: _115  and  _117
REMARK   50  A    between atoms: _117  and  _118
REMARK   51  A    between atoms: _121  and  _123
REMARK   52  A    between atoms: _123  and  _124
REMARK   53  A    between atoms: _123  and  _126
REMARK   54  A    between atoms: _129  and  _131
REMARK   55  A    between atoms: _131  and  _132
REMARK   56  A    between atoms: _135  and  _137
REMARK   57  A    between atoms: _137  and  _138
REMARK   58  A    between atoms: _137  and  _140
REMARK   59  A    between atoms: _143  and  _145
REMARK   60  A    between atoms: _145  and  _146
REMARK   61  A    between atoms: _145  and  _148
REMARK   62  A    between atoms: _148  and  _149
REMARK   63  A    between atoms: _149  and  _150
REMARK   64  A    between atoms: _150  and  _151
REMARK   65  A    between atoms: _151  and  _152
REMARK   66  A    between atoms: _156  and  _158
REMARK   67  A    between atoms: _158  and  _159
REMARK   68  A    between atoms: _158  and  _161
REMARK   69  A    between atoms: _161  and  _162
REMARK   70  A    between atoms: _165  and  _167
REMARK   71  A    between atoms: _167  and  _168
REMARK   72  A    between atoms: _167  and  _170
REMARK   73  A    between atoms: _173  and  _175
REMARK   74  A    between atoms: _175  and  _176
REMARK   75  A    between atoms: _175  and  _178
REMARK   76  A    between atoms: _178  and  _179
REMARK   77  A    between atoms: _179  and  _180
REMARK   78  A    between atoms: _183  and  _185
REMARK   79  A    between atoms: _185  and  _186
REMARK   80  A    between atoms: _185  and  _188
REMARK   81  A    between atoms: _188  and  _189
REMARK   82  A    between atoms: _194  and  _196
REMARK   83  A    between atoms: _196  and  _197
REMARK   84  A    between atoms: _196  and  _199
REMARK   85  A    between atoms: _202  and  _204
REMARK   86  A    between atoms: _204  and  _205
REMARK   87  A    between atoms: _204  and  _207
REMARK   88  A    between atoms: _210  and  _212
REMARK   89  A    between atoms: _212  and  _213
REMARK   90  A    between atoms: _212  and  _215
REMARK   91  A    between atoms: _215  and  _216
REMARK   92  A    between atoms: _216  and  _217
REMARK   93  A    between atoms: _217  and  _218
REMARK   94  A    between atoms: _218  and  _219
REMARK   95  A    between atoms: _223  and  _225
REMARK   96  A    between atoms: _225  and  _226
REMARK   97  A    between atoms: _225  and  _228
REMARK   98  A    between atoms: _228  and  _229
REMARK   99  A    between atoms: _235  and  _237
REMARK  100  A    between atoms: _237  and  _238
REMARK  101  A    between atoms: _237  and  _240
REMARK  102  A    between atoms: _240  and  _241
REMARK  103  A    between atoms: _246  and  _247
REMARK  104  A    between atoms: _249  and  _251
REMARK  105  A    between atoms: _251  and  _252
REMARK  106  A    between atoms: _251  and  _254
REMARK  107  A    between atoms: _254  and  _255
REMARK  108  A    between atoms: _258  and  _260
REMARK  109  A    between atoms: _260  and  _261
REMARK  110  A    between atoms: _260  and  _263
REMARK  111  A    between atoms: _263  and  _264
REMARK  112  A    between atoms: _270  and  _272
REMARK  113  A    between atoms: _272  and  _273
REMARK  114  A    between atoms: _272  and  _275
REMARK  115  A    between atoms: _275  and  _276
REMARK  116  A    between atoms: _279  and  _281
REMARK  117  A    between atoms: _281  and  _282
REMARK  118  A    between atoms: _281  and  _284
REMARK  119  A    between atoms: _284  and  _285
REMARK  120  A    between atoms: _285  and  _286
REMARK  121  A    between atoms: _289  and  _291
REMARK  122  A    between atoms: _291  and  _292
REMARK  123  A    between atoms: _291  and  _294
REMARK  124  A    between atoms: _294  and  _295
REMARK  125  A    between atoms: _300  and  _301
REMARK  126  A    between atoms: _303  and  _305
REMARK  127  A    between atoms: _305  and  _306
REMARK  128  A    between atoms: _305  and  _308
REMARK  129  A    between atoms: _310  and  _312
REMARK  130  A    between atoms: _312  and  _313
REMARK  131  A    between atoms: _312  and  _315
REMARK  132  A    between atoms: _315  and  _316
REMARK  133  A    between atoms: _318  and  _320
REMARK  134  A    between atoms: _320  and  _321
REMARK  135  A    between atoms: _323  and  _325
REMARK  136  A    between atoms: _325  and  _326
REMARK  137  A    between atoms: _328  and  _330
REMARK  138  A    between atoms: _330  and  _331
REMARK  139  A    between atoms: _330  and  _333
REMARK  140  A    between atoms: _333  and  _334
REMARK  141  A    between atoms: _334  and  _335
REMARK  142  A    between atoms: _338  and  _340
REMARK  143  A    between atoms: _340  and  _341
REMARK  144  A    between atoms: _340  and  _343
REMARK  145  A    between atoms: _343  and  _344
REMARK  146  A    between atoms: _347  and  _349
REMARK  147  A    between atoms: _349  and  _350
REMARK  148  A    between atoms: _349  and  _352
REMARK  149  A    between atoms: _352  and  _353
REMARK  150  A    between atoms: _359  and  _361
REMARK  151  A    between atoms: _361  and  _362
REMARK  152  A    between atoms: _361  and  _364
REMARK  153  A    between atoms: _364  and  _365
REMARK  154  A    between atoms: _368  and  _370
REMARK  155  A    between atoms: _370  and  _371
REMARK  156  A    between atoms: _370  and  _373
REMARK  157  A    between atoms: _373  and  _374
REMARK  158  A    between atoms: _379  and  _381
REMARK  159  A    between atoms: _381  and  _382
REMARK  160  A    between atoms: _381  and  _384
REMARK  161  A    between atoms: _384  and  _385
REMARK  162  A    between atoms: _388  and  _390
REMARK  163  A    between atoms: _390  and  _391
REMARK  164  A    between atoms: _390  and  _393
REMARK  165  A    between atoms: _393  and  _394
REMARK  166  A    between atoms: _394  and  _395
REMARK  167  A    between atoms: _395  and  _396
REMARK  168  A    between atoms: _396  and  _397
REMARK  169  A    between atoms: _402  and  _403
REMARK  170  A    between atoms: _408  and  _410
REMARK  171  A    between atoms: _410  and  _411
REMARK  172  A    between atoms: _410  and  _413
REMARK  173  A    between atoms: _413  and  _414
REMARK  174  A    between atoms: _414  and  _415
REMARK  175  A    between atoms: _418  and  _420
REMARK  176  A    between atoms: _420  and  _421
REMARK  177  A    between atoms: _420  and  _423
REMARK  178  A    between atoms: _423  and  _424
REMARK  179  A    between atoms: _429  and  _431
REMARK  180  A    between atoms: _431  and  _432
REMARK  181  A    between atoms: _431  and  _434
REMARK  182  A    between atoms: _434  and  _435
REMARK  183  A    between atoms: _438  and  _440
REMARK  184  A    between atoms: _440  and  _441
REMARK  185  A    between atoms: _440  and  _443
REMARK  186  A    between atoms: _443  and  _444
REMARK  187  A    between atoms: _447  and  _449
REMARK  188  A    between atoms: _449  and  _450
REMARK  189  A    between atoms: _449  and  _452
REMARK  190  A    between atoms: _452  and  _453
REMARK  191  A    between atoms: _456  and  _458
REMARK  192  A    between atoms: _458  and  _459
REMARK  193  A    between atoms: _458  and  _461
REMARK  194  A    between atoms: _461  and  _462
REMARK  195  A    between atoms: _465  and  _467
REMARK  196  A    between atoms: _467  and  _468
REMARK  197  A    between atoms: _467  and  _470
REMARK  198  A    between atoms: _470  and  _471
REMARK  199  A    between atoms: _471  and  _472
REMARK  200  A    between atoms: _472  and  _473
REMARK  201  A    between atoms: _473  and  _474
REMARK  202  A    between atoms: _478  and  _480
REMARK  203  A    between atoms: _480  and  _481
REMARK  204  A    between atoms: _480  and  _483
REMARK  205  A    between atoms: _483  and  _484
REMARK  206  A    between atoms: _487  and  _489
REMARK  207  A    between atoms: _489  and  _490
REMARK  208  A    between atoms: _489  and  _492
REMARK  209  A    between atoms: _492  and  _493
REMARK  210  A    between atoms: _495  and  _497
REMARK  211  A    between atoms: _497  and  _498
REMARK  212  A    between atoms: _497  and  _500
REMARK  213  A    between atoms: _500  and  _501
REMARK  214  A    between atoms: _504  and  _506
REMARK  215  A    between atoms: _506  and  _507
REMARK  216  A    between atoms: _506  and  _509
REMARK  217  A    between atoms: _509  and  _510
REMARK  218  A    between atoms: _516  and  _518
REMARK  219  A    between atoms: _518  and  _519
REMARK  220  A    between atoms: _521  and  _523
REMARK  221  A    between atoms: _523  and  _524
REMARK  222  A    between atoms: _523  and  _526
REMARK  223  A    between atoms: _526  and  _527
REMARK                            x       y       z     vdW  Elec       q    Type
REMARK                         _______ _______ _______ _____ _____    ______ ____
ROOT
ATOM      1  O   HOH     1      -1.542   3.744  19.854  0.00  0.00    +0.000 OA
ENDROOT
TORSDOF 0
REMARK  Name = ../refined-set-2016/1nvq/1nvq_pocket.pdb
REMARK  223 active torsions:
REMARK  status: ('A' for Active; 'I' for Inactive)
REMARK    1  A    between atoms: _1  and  _3
REMARK    2  A    between atoms: _3  and  _4
REMARK    3  A    between atoms: _3  and  _6
REMARK    4  A    between atoms: _6  and  _7
REMARK    5  A    between atoms: _7  and  _8
REMARK    6  A    between atoms: _13  and  _15
REMARK    7  A    between atoms: _15  and  _16
REMARK    8  A    between atoms: _15  and  _18
REMARK    9  A    between atoms: _18  and  _19
REMARK   10  A    between atoms: _22  and  _24
REMARK   11  A    between atoms: _24  and  _25
REMARK   12  A    between atoms: _24  and  _27
REMARK   13  A    between atoms: _27  and  _28
REMARK   14  A    between atoms: _31  and  _33
REMARK   15  A    between atoms: _33  and  _34
REMARK   16  A    between atoms: _36  and  _38
REMARK   17  A    between atoms: _38  and  _39
REMARK   18  A    between atoms: _38  and  _41
REMARK   19  A    between atoms: _41  and  _42
REMARK   20  A    between atoms: _42  and  _43
REMARK   21  A    between atoms: _46  and  _48
REMARK   22  A    between atoms: _48  and  _49
REMARK   23  A    between atoms: _51  and  _53
REMARK   24  A    between atoms: _53  and  _54
REMARK   25  A    between atoms: _53  and  _56
REMARK   26  A    between atoms: _56  and  _57
REMARK   27  A    between atoms: _62  and  _63
REMARK   28  A    between atoms: _65  and  _67
REMARK   29  A    between atoms: _67  and  _68
REMARK   30  A    between atoms: _70  and  _72
REMARK   31  A    between atoms: _72  and  _73
REMARK   32  A    between atoms: _72  and  _75
REMARK   33  A    between atoms: _75  and  _76
REMARK   34  A    between atoms: _76  and  _77
REMARK   35  A    between atoms: _80  and  _82
REMARK   36  A    between atoms: _82  and  _83
REMARK   37  A    between atoms: _82  and  _85
REMARK   38  A    between atoms: _88  and  _90
REMARK   39  A    between atoms: _90  and  _91
REMARK   40  A    between atoms: _90  and  _93
REMARK   41  A    between atoms: _93  and  _94
REMARK   42  A    between atoms: _94  and  _95
REMARK   43  A    between atoms: _100  and  _102
REMARK   44  A    between atoms: _102  and  _103
REMARK   45  A    between atoms: _102  and  _105
REMARK   46  A    between atoms: _105  and  _106
REMARK   47  A    between atoms: _109  and  _111
REMARK   48  A    between atoms: _111  and  _112
REMARK   49  A    between atoms: _115  and  _117
REMARK   50  A    between atoms: _117  and  _118
REMARK   51  A    between atoms: _121  and  _123
REMARK   52  A    between atoms: _123  and  _124
REMARK   53  A    between atoms: _123  and  _126
REMARK   54  A    between atoms: _129  and  _131
REMARK   55  A    between atoms: _131  and  _132
REMARK   56  A    between atoms: _135  and  _137
REMARK   57  A    between atoms: _137  and  _138
REMARK   58  A    between atoms: _137  and  _140
REMARK   59  A    between atoms: _143  and  _145
REMARK   60  A    between atoms: _145  and  _146
REMARK   61  A    between atoms: _145  and  _148
REMARK   62  A    between atoms: _148  and  _149
REMARK   63  A    between atoms: _149  and  _150
REMARK   64  A    between atoms: _150  and  _151
REMARK   65  A    between atoms: _151  and  _152
REMARK   66  A    between atoms: _156  and  _158
REMARK   67  A    between atoms: _158  and  _159
REMARK   68  A    between atoms: _158  and  _161
REMARK   69  A    between atoms: _161  and  _162
REMARK   70  A    between atoms: _165  and  _167
REMARK   71  A    between atoms: _167  and  _168
REMARK   72  A    between atoms: _167  and  _170
REMARK   73  A    between atoms: _173  and  _175
REMARK   74  A    between atoms: _175  and  _176
REMARK   75  A    between atoms: _175  and  _178
REMARK   76  A    between atoms: _178  and  _179
REMARK   77  A    between atoms: _179  and  _180
REMARK   78  A    between atoms: _183  and  _185
REMARK   79  A    between atoms: _185  and  _186
REMARK   80  A    between atoms: _185  and  _188
REMARK   81  A    between atoms: _188  and  _189
REMARK   82  A    between atoms: _194  and  _196
REMARK   83  A    between atoms: _196  and  _197
REMARK   84  A    between atoms: _196  and  _199
REMARK   85  A    between atoms: _202  and  _204
REMARK   86  A    between atoms: _204  and  _205
REMARK   87  A    between atoms: _204  and  _207
REMARK   88  A    between atoms: _210  and  _212
REMARK   89  A    between atoms: _212  and  _213
REMARK   90  A    between atoms: _212  and  _215
REMARK   91  A    between atoms: _215  and  _216
REMARK   92  A    between atoms: _216  and  _217
REMARK   93  A    between atoms: _217  and  _218
REMARK   94  A    between atoms: _218  and  _219
REMARK   95  A    between atoms: _223  and  _225
REMARK   96  A    between atoms: _225  and  _226
REMARK   97  A    between atoms: _225  and  _228
REMARK   98  A    between atoms: _228  and  _229
REMARK   99  A    between atoms: _235  and  _237
REMARK  100  A    between atoms: _237  and  _238
REMARK  101  A    between atoms: _237  and  _240
REMARK  102  A    between atoms: _240  and  _241
REMARK  103  A    between atoms: _246  and  _247
REMARK  104  A    between atoms: _249  and  _251
REMARK  105  A    between atoms: _251  and  _252
REMARK  106  A    between atoms: _251  and  _254
REMARK  107  A    between atoms: _254  and  _255
REMARK  108  A    between atoms: _258  and  _260
REMARK  109  A    between atoms: _260  and  _261
REMARK  110  A    between atoms: _260  and  _263
REMARK  111  A    between atoms: _263  and  _264
REMARK  112  A    between atoms: _270  and  _272
REMARK  113  A    between atoms: _272  and  _273
REMARK  114  A    between atoms: _272  and  _275
REMARK  115  A    between atoms: _275  and  _276
REMARK  116  A    between atoms: _279  and  _281
REMARK  117  A    between atoms: _281  and  _282
REMARK  118  A    between atoms: _281  and  _284
REMARK  119  A    between atoms: _284  and  _285
REMARK  120  A    between atoms: _285  and  _286
REMARK  121  A    between atoms: _289  and  _291
REMARK  122  A    between atoms: _291  and  _292
REMARK  123  A    between atoms: _291  and  _294
REMARK  124  A    between atoms: _294  and  _295
REMARK  125  A    between atoms: _300  and  _301
REMARK  126  A    between atoms: _303  and  _305
REMARK  127  A    between atoms: _305  and  _306
REMARK  128  A    between atoms: _305  and  _308
REMARK  129  A    between atoms: _310  and  _312
REMARK  130  A    between atoms: _312  and  _313
REMARK  131  A    between atoms: _312  and  _315
REMARK  132  A    between atoms: _315  and  _316
REMARK  133  A    between atoms: _318  and  _320
REMARK  134  A    between atoms: _320  and  _321
REMARK  135  A    between atoms: _323  and  _325
REMARK  136  A    between atoms: _325  and  _326
REMARK  137  A    between atoms: _328  and  _330
REMARK  138  A    between atoms: _330  and  _331
REMARK  139  A    between atoms: _330  and  _333
REMARK  140  A    between atoms: _333  and  _334
REMARK  141  A    between atoms: _334  and  _335
REMARK  142  A    between atoms: _338  and  _340
REMARK  143  A    between atoms: _340  and  _341
REMARK  144  A    between atoms: _340  and  _343
REMARK  145  A    between atoms: _343  and  _344
REMARK  146  A    between atoms: _347  and  _349
REMARK  147  A    between atoms: _349  and  _350
REMARK  148  A    between atoms: _349  and  _352
REMARK  149  A    between atoms: _352  and  _353
REMARK  150  A    between atoms: _359  and  _361
REMARK  151  A    between atoms: _361  and  _362
REMARK  152  A    between atoms: _361  and  _364
REMARK  153  A    between atoms: _364  and  _365
REMARK  154  A    between atoms: _368  and  _370
REMARK  155  A    between atoms: _370  and  _371
REMARK  156  A    between atoms: _370  and  _373
REMARK  157  A    between atoms: _373  and  _374
REMARK  158  A    between atoms: _379  and  _381
REMARK  159  A    between atoms: _381  and  _382
REMARK  160  A    between atoms: _381  and  _384
REMARK  161  A    between atoms: _384  and  _385
REMARK  162  A    between atoms: _388  and  _390
REMARK  163  A    between atoms: _390  and  _391
REMARK  164  A    between atoms: _390  and  _393
REMARK  165  A    between atoms: _393  and  _394
REMARK  166  A    between atoms: _394  and  _395
REMARK  167  A    between atoms: _395  and  _396
REMARK  168  A    between atoms: _396  and  _397
REMARK  169  A    between atoms: _402  and  _403
REMARK  170  A    between atoms: _408  and  _410
REMARK  171  A    between atoms: _410  and  _411
REMARK  172  A    between atoms: _410  and  _413
REMARK  173  A    between atoms: _413  and  _414
REMARK  174  A    between atoms: _414  and  _415
REMARK  175  A    between atoms: _418  and  _420
REMARK  176  A    between atoms: _420  and  _421
REMARK  177  A    between atoms: _420  and  _423
REMARK  178  A    between atoms: _423  and  _424
REMARK  179  A    between atoms: _429  and  _431
REMARK  180  A    between atoms: _431  and  _432
REMARK  181  A    between atoms: _431  and  _434
REMARK  182  A    between atoms: _434  and  _435
REMARK  183  A    between atoms: _438  and  _440
REMARK  184  A    between atoms: _440  and  _441
REMARK  185  A    between atoms: _440  and  _443
REMARK  186  A    between atoms: _443  and  _444
REMARK  187  A    between atoms: _447  and  _449
REMARK  188  A    between atoms: _449  and  _450
REMARK  189  A    between atoms: _449  and  _452
REMARK  190  A    between atoms: _452  and  _453
REMARK  191  A    between atoms: _456  and  _458
REMARK  192  A    between atoms: _458  and  _459
REMARK  193  A    between atoms: _458  and  _461
REMARK  194  A    between atoms: _461  and  _462
REMARK  195  A    between atoms: _465  and  _467
REMARK  196  A    between atoms: _467  and  _468
REMARK  197  A    between atoms: _467  and  _470
REMARK  198  A    between atoms: _470  and  _471
REMARK  199  A    between atoms: _471  and  _472
REMARK  200  A    between atoms: _472  and  _473
REMARK  201  A    between atoms: _473  and  _474
REMARK  202  A    between atoms: _478  and  _480
REMARK  203  A    between atoms: _480  and  _481
REMARK  204  A    between atoms: _480  and  _483
REMARK  205  A    between atoms: _483  and  _484
REMARK  206  A    between atoms: _487  and  _489
REMARK  207  A    between atoms: _489  and  _490
REMARK  208  A    between atoms: _489  and  _492
REMARK  209  A    between atoms: _492  and  _493
REMARK  210  A    between atoms: _495  and  _497
REMARK  211  A    between atoms: _497  and  _498
REMARK  212  A    between atoms: _497  and  _500
REMARK  213  A    between atoms: _500  and  _501
REMARK  214  A    between atoms: _504  and  _506
REMARK  215  A    between atoms: _506  and  _507
REMARK  216  A    between atoms: _506  and  _509
REMARK  217  A    between atoms: _509  and  _510
REMARK  218  A    between atoms: _516  and  _518
REMARK  219  A    between atoms: _518  and  _519
REMARK  220  A    between atoms: _521  and  _523
REMARK  221  A    between atoms: _523  and  _524
REMARK  222  A    between atoms: _523  and  _526
REMARK  223  A    between atoms: _526  and  _527
REMARK                            x       y       z     vdW  Elec       q    Type
REMARK                         _______ _______ _______ _____ _____    ______ ____
ROOT
ATOM      1  O   HOH     1      12.978   8.022  14.019  0.00  0.00    +0.000 OA
ENDROOT
TORSDOF 0
REMARK  Name = ../refined-set-2016/1nvq/1nvq_pocket.pdb
REMARK  223 active torsions:
REMARK  status: ('A' for Active; 'I' for Inactive)
REMARK    1  A    between atoms: _1  and  _3
REMARK    2  A    between atoms: _3  and  _4
REMARK    3  A    between atoms: _3  and  _6
REMARK    4  A    between atoms: _6  and  _7
REMARK    5  A    between atoms: _7  and  _8
REMARK    6  A    between atoms: _13  and  _15
REMARK    7  A    between atoms: _15  and  _16
REMARK    8  A    between atoms: _15  and  _18
REMARK    9  A    between atoms: _18  and  _19
REMARK   10  A    between atoms: _22  and  _24
REMARK   11  A    between atoms: _24  and  _25
REMARK   12  A    between atoms: _24  and  _27
REMARK   13  A    between atoms: _27  and  _28
REMARK   14  A    between atoms: _31  and  _33
REMARK   15  A    between atoms: _33  and  _34
REMARK   16  A    between atoms: _36  and  _38
REMARK   17  A    between atoms: _38  and  _39
REMARK   18  A    between atoms: _38  and  _41
REMARK   19  A    between atoms: _41  and  _42
REMARK   20  A    between atoms: _42  and  _43
REMARK   21  A    between atoms: _46  and  _48
REMARK   22  A    between atoms: _48  and  _49
REMARK   23  A    between atoms: _51  and  _53
REMARK   24  A    between atoms: _53  and  _54
REMARK   25  A    between atoms: _53  and  _56
REMARK   26  A    between atoms: _56  and  _57
REMARK   27  A    between atoms: _62  and  _63
REMARK   28  A    between atoms: _65  and  _67
REMARK   29  A    between atoms: _67  and  _68
REMARK   30  A    between atoms: _70  and  _72
REMARK   31  A    between atoms: _72  and  _73
REMARK   32  A    between atoms: _72  and  _75
REMARK   33  A    between atoms: _75  and  _76
REMARK   34  A    between atoms: _76  and  _77
REMARK   35  A    between atoms: _80  and  _82
REMARK   36  A    between atoms: _82  and  _83
REMARK   37  A    between atoms: _82  and  _85
REMARK   38  A    between atoms: _88  and  _90
REMARK   39  A    between atoms: _90  and  _91
REMARK   40  A    between atoms: _90  and  _93
REMARK   41  A    between atoms: _93  and  _94
REMARK   42  A    between atoms: _94  and  _95
REMARK   43  A    between atoms: _100  and  _102
REMARK   44  A    between atoms: _102  and  _103
REMARK   45  A    between atoms: _102  and  _105
REMARK   46  A    between atoms: _105  and  _106
REMARK   47  A    between atoms: _109  and  _111
REMARK   48  A    between atoms: _111  and  _112
REMARK   49  A    between atoms: _115  and  _117
REMARK   50  A    between atoms: _117  and  _118
REMARK   51  A    between atoms: _121  and  _123
REMARK   52  A    between atoms: _123  and  _124
REMARK   53  A    between atoms: _123  and  _126
REMARK   54  A    between atoms: _129  and  _131
REMARK   55  A    between atoms: _131  and  _132
REMARK   56  A    between atoms: _135  and  _137
REMARK   57  A    between atoms: _137  and  _138
REMARK   58  A    between atoms: _137  and  _140
REMARK   59  A    between atoms: _143  and  _145
REMARK   60  A    between atoms: _145  and  _146
REMARK   61  A    between atoms: _145  and  _148
REMARK   62  A    between atoms: _148  and  _149
REMARK   63  A    between atoms: _149  and  _150
REMARK   64  A    between atoms: _150  and  _151
REMARK   65  A    between atoms: _151  and  _152
REMARK   66  A    between atoms: _156  and  _158
REMARK   67  A    between atoms: _158  and  _159
REMARK   68  A    between atoms: _158  and  _161
REMARK   69  A    between atoms: _161  and  _162
REMARK   70  A    between atoms: _165  and  _167
REMARK   71  A    between atoms: _167  and  _168
REMARK   72  A    between atoms: _167  and  _170
REMARK   73  A    between atoms: _173  and  _175
REMARK   74  A    between atoms: _175  and  _176
REMARK   75  A    between atoms: _175  and  _178
REMARK   76  A    between atoms: _178  and  _179
REMARK   77  A    between atoms: _179  and  _180
REMARK   78  A    between atoms: _183  and  _185
REMARK   79  A    between atoms: _185  and  _186
REMARK   80  A    between atoms: _185  and  _188
REMARK   81  A    between atoms: _188  and  _189
REMARK   82  A    between atoms: _194  and  _196
REMARK   83  A    between atoms: _196  and  _197
REMARK   84  A    between atoms: _196  and  _199
REMARK   85  A    between atoms: _202  and  _204
REMARK   86  A    between atoms: _204  and  _205
REMARK   87  A    between atoms: _204  and  _207
REMARK   88  A    between atoms: _210  and  _212
REMARK   89  A    between atoms: _212  and  _213
REMARK   90  A    between atoms: _212  and  _215
REMARK   91  A    between atoms: _215  and  _216
REMARK   92  A    between atoms: _216  and  _217
REMARK   93  A    between atoms: _217  and  _218
REMARK   94  A    between atoms: _218  and  _219
REMARK   95  A    between atoms: _223  and  _225
REMARK   96  A    between atoms: _225  and  _226
REMARK   97  A    between atoms: _225  and  _228
REMARK   98  A    between atoms: _228  and  _229
REMARK   99  A    between atoms: _235  and  _237
REMARK  100  A    between atoms: _237  and  _238
REMARK  101  A    between atoms: _237  and  _240
REMARK  102  A    between atoms: _240  and  _241
REMARK  103  A    between atoms: _246  and  _247
REMARK  104  A    between atoms: _249  and  _251
REMARK  105  A    between atoms: _251  and  _252
REMARK  106  A    between atoms: _251  and  _254
REMARK  107  A    between atoms: _254  and  _255
REMARK  108  A    between atoms: _258  and  _260
REMARK  109  A    between atoms: _260  and  _261
REMARK  110  A    between atoms: _260  and  _263
REMARK  111  A    between atoms: _263  and  _264
REMARK  112  A    between atoms: _270  and  _272
REMARK  113  A    between atoms: _272  and  _273
REMARK  114  A    between atoms: _272  and  _275
REMARK  115  A    between atoms: _275  and  _276
REMARK  116  A    between atoms: _279  and  _281
REMARK  117  A    between atoms: _281  and  _282
REMARK  118  A    between atoms: _281  and  _284
REMARK  119  A    between atoms: _284  and  _285
REMARK  120  A    between atoms: _285  and  _286
REMARK  121  A    between atoms: _289  and  _291
REMARK  122  A    between atoms: _291  and  _292
REMARK  123  A    between atoms: _291  and  _294
REMARK  124  A    between atoms: _294  and  _295
REMARK  125  A    between atoms: _300  and  _301
REMARK  126  A    between atoms: _303  and  _305
REMARK  127  A    between atoms: _305  and  _306
REMARK  128  A    between atoms: _305  and  _308
REMARK  129  A    between atoms: _310  and  _312
REMARK  130  A    between atoms: _312  and  _313
REMARK  131  A    between atoms: _312  and  _315
REMARK  132  A    between atoms: _315  and  _316
REMARK  133  A    between atoms: _318  and  _320
REMARK  134  A    between atoms: _320  and  _321
REMARK  135  A    between atoms: _323  and  _325
REMARK  136  A    between atoms: _325  and  _326
REMARK  137  A    between atoms: _328  and  _330
REMARK  138  A    between atoms: _330  and  _331
REMARK  139  A    between atoms: _330  and  _333
REMARK  140  A    between atoms: _333  and  _334
REMARK  141  A    between atoms: _334  and  _335
REMARK  142  A    between atoms: _338  and  _340
REMARK  143  A    between atoms: _340  and  _341
REMARK  144  A    between atoms: _340  and  _343
REMARK  145  A    between atoms: _343  and  _344
REMARK  146  A    between atoms: _347  and  _349
REMARK  147  A    between atoms: _349  and  _350
REMARK  148  A    between atoms: _349  and  _352
REMARK  149  A    between atoms: _352  and  _353
REMARK  150  A    between atoms: _359  and  _361
REMARK  151  A    between atoms: _361  and  _362
REMARK  152  A    between atoms: _361  and  _364
REMARK  153  A    between atoms: _364  and  _365
REMARK  154  A    between atoms: _368  and  _370
REMARK  155  A    between atoms: _370  and  _371
REMARK  156  A    between atoms: _370  and  _373
REMARK  157  A    between atoms: _373  and  _374
REMARK  158  A    between atoms: _379  and  _381
REMARK  159  A    between atoms: _381  and  _382
REMARK  160  A    between atoms: _381  and  _384
REMARK  161  A    between atoms: _384  and  _385
REMARK  162  A    between atoms: _388  and  _390
REMARK  163  A    between atoms: _390  and  _391
REMARK  164  A    between atoms: _390  and  _393
REMARK  165  A    between atoms: _393  and  _394
REMARK  166  A    between atoms: _394  and  _395
REMARK  167  A    between atoms: _395  and  _396
REMARK  168  A    between atoms: _396  and  _397
REMARK  169  A    between atoms: _402  and  _403
REMARK  170  A    between atoms: _408  and  _410
REMARK  171  A    between atoms: _410  and  _411
REMARK  172  A    between atoms: _410  and  _413
REMARK  173  A    between atoms: _413  and  _414
REMARK  174  A    between atoms: _414  and  _415
REMARK  175  A    between atoms: _418  and  _420
REMARK  176  A    between atoms: _420  and  _421
REMARK  177  A    between atoms: _420  and  _423
REMARK  178  A    between atoms: _423  and  _424
REMARK  179  A    between atoms: _429  and  _431
REMARK  180  A    between atoms: _431  and  _432
REMARK  181  A    between atoms: _431  and  _434
REMARK  182  A    between atoms: _434  and  _435
REMARK  183  A    between atoms: _438  and  _440
REMARK  184  A    between atoms: _440  and  _441
REMARK  185  A    between atoms: _440  and  _443
REMARK  186  A    between atoms: _443  and  _444
REMARK  187  A    between atoms: _447  and  _449
REMARK  188  A    between atoms: _449  and  _450
REMARK  189  A    between atoms: _449  and  _452
REMARK  190  A    between atoms: _452  and  _453
REMARK  191  A    between atoms: _456  and  _458
REMARK  192  A    between atoms: _458  and  _459
REMARK  193  A    between atoms: _458  and  _461
REMARK  194  A    between atoms: _461  and  _462
REMARK  195  A    between atoms: _465  and  _467
REMARK  196  A    between atoms: _467  and  _468
REMARK  197  A    between atoms: _467  and  _470
REMARK  198  A    between atoms: _470  and  _471
REMARK  199  A    between atoms: _471  and  _472
REMARK  200  A    between atoms: _472  and  _473
REMARK  201  A    between atoms: _473  and  _474
REMARK  202  A    between atoms: _478  and  _480
REMARK  203  A    between atoms: _480  and  _481
REMARK  204  A    between atoms: _480  and  _483
REMARK  205  A    between atoms: _483  and  _484
REMARK  206  A    between atoms: _487  and  _489
REMARK  207  A    between atoms: _489  and  _490
REMARK  208  A    between atoms: _489  and  _492
REMARK  209  A    between atoms: _492  and  _493
REMARK  210  A    between atoms: _495  and  _497
REMARK  211  A    between atoms: _497  and  _498
REMARK  212  A    between atoms: _497  and  _500
REMARK  213  A    between atoms: _500  and  _501
REMARK  214  A    between atoms: _504  and  _506
REMARK  215  A    between atoms: _506  and  _507
REMARK  216  A    between atoms: _506  and  _509
REMARK  217  A    between atoms: _509  and  _510
REMARK  218  A    between atoms: _516  and  _518
REMARK  219  A    between atoms: _518  and  _519
REMARK  220  A    between atoms: _521  and  _523
REMARK  221  A    between atoms: _523  and  _524
REMARK  222  A    between atoms: _523  and  _526
REMARK  223  A    between atoms: _526  and  _527
REMARK                            x       y       z     vdW  Elec       q    Type
REMARK                         _______ _______ _______ _____ _____    ______ ____
ROOT
ATOM      1  O   HOH     1      12.063  12.144  15.036  0.00  0.00    +0.000 OA
ENDROOT
TORSDOF 0
REMARK  Name = ../refined-set-2016/1nvq/1nvq_pocket.pdb
REMARK  223 active torsions:
REMARK  status: ('A' for Active; 'I' for Inactive)
REMARK    1  A    between atoms: _1  and  _3
REMARK    2  A    between atoms: _3  and  _4
REMARK    3  A    between atoms: _3  and  _6
REMARK    4  A    between atoms: _6  and  _7
REMARK    5  A    between atoms: _7  and  _8
REMARK    6  A    between atoms: _13  and  _15
REMARK    7  A    between atoms: _15  and  _16
REMARK    8  A    between atoms: _15  and  _18
REMARK    9  A    between atoms: _18  and  _19
REMARK   10  A    between atoms: _22  and  _24
REMARK   11  A    between atoms: _24  and  _25
REMARK   12  A    between atoms: _24  and  _27
REMARK   13  A    between atoms: _27  and  _28
REMARK   14  A    between atoms: _31  and  _33
REMARK   15  A    between atoms: _33  and  _34
REMARK   16  A    between atoms: _36  and  _38
REMARK   17  A    between atoms: _38  and  _39
REMARK   18  A    between atoms: _38  and  _41
REMARK   19  A    between atoms: _41  and  _42
REMARK   20  A    between atoms: _42  and  _43
REMARK   21  A    between atoms: _46  and  _48
REMARK   22  A    between atoms: _48  and  _49
REMARK   23  A    between atoms: _51  and  _53
REMARK   24  A    between atoms: _53  and  _54
REMARK   25  A    between atoms: _53  and  _56
REMARK   26  A    between atoms: _56  and  _57
REMARK   27  A    between atoms: _62  and  _63
REMARK   28  A    between atoms: _65  and  _67
REMARK   29  A    between atoms: _67  and  _68
REMARK   30  A    between atoms: _70  and  _72
REMARK   31  A    between atoms: _72  and  _73
REMARK   32  A    between atoms: _72  and  _75
REMARK   33  A    between atoms: _75  and  _76
REMARK   34  A    between atoms: _76  and  _77
REMARK   35  A    between atoms: _80  and  _82
REMARK   36  A    between atoms: _82  and  _83
REMARK   37  A    between atoms: _82  and  _85
REMARK   38  A    between atoms: _88  and  _90
REMARK   39  A    between atoms: _90  and  _91
REMARK   40  A    between atoms: _90  and  _93
REMARK   41  A    between atoms: _93  and  _94
REMARK   42  A    between atoms: _94  and  _95
REMARK   43  A    between atoms: _100  and  _102
REMARK   44  A    between atoms: _102  and  _103
REMARK   45  A    between atoms: _102  and  _105
REMARK   46  A    between atoms: _105  and  _106
REMARK   47  A    between atoms: _109  and  _111
REMARK   48  A    between atoms: _111  and  _112
REMARK   49  A    between atoms: _115  and  _117
REMARK   50  A    between atoms: _117  and  _118
REMARK   51  A    between atoms: _121  and  _123
REMARK   52  A    between atoms: _123  and  _124
REMARK   53  A    between atoms: _123  and  _126
REMARK   54  A    between atoms: _129  and  _131
REMARK   55  A    between atoms: _131  and  _132
REMARK   56  A    between atoms: _135  and  _137
REMARK   57  A    between atoms: _137  and  _138
REMARK   58  A    between atoms: _137  and  _140
REMARK   59  A    between atoms: _143  and  _145
REMARK   60  A    between atoms: _145  and  _146
REMARK   61  A    between atoms: _145  and  _148
REMARK   62  A    between atoms: _148  and  _149
REMARK   63  A    between atoms: _149  and  _150
REMARK   64  A    between atoms: _150  and  _151
REMARK   65  A    between atoms: _151  and  _152
REMARK   66  A    between atoms: _156  and  _158
REMARK   67  A    between atoms: _158  and  _159
REMARK   68  A    between atoms: _158  and  _161
REMARK   69  A    between atoms: _161  and  _162
REMARK   70  A    between atoms: _165  and  _167
REMARK   71  A    between atoms: _167  and  _168
REMARK   72  A    between atoms: _167  and  _170
REMARK   73  A    between atoms: _173  and  _175
REMARK   74  A    between atoms: _175  and  _176
REMARK   75  A    between atoms: _175  and  _178
REMARK   76  A    between atoms: _178  and  _179
REMARK   77  A    between atoms: _179  and  _180
REMARK   78  A    between atoms: _183  and  _185
REMARK   79  A    between atoms: _185  and  _186
REMARK   80  A    between atoms: _185  and  _188
REMARK   81  A    between atoms: _188  and  _189
REMARK   82  A    between atoms: _194  and  _196
REMARK   83  A    between atoms: _196  and  _197
REMARK   84  A    between atoms: _196  and  _199
REMARK   85  A    between atoms: _202  and  _204
REMARK   86  A    between atoms: _204  and  _205
REMARK   87  A    between atoms: _204  and  _207
REMARK   88  A    between atoms: _210  and  _212
REMARK   89  A    between atoms: _212  and  _213
REMARK   90  A    between atoms: _212  and  _215
REMARK   91  A    between atoms: _215  and  _216
REMARK   92  A    between atoms: _216  and  _217
REMARK   93  A    between atoms: _217  and  _218
REMARK   94  A    between atoms: _218  and  _219
REMARK   95  A    between atoms: _223  and  _225
REMARK   96  A    between atoms: _225  and  _226
REMARK   97  A    between atoms: _225  and  _228
REMARK   98  A    between atoms: _228  and  _229
REMARK   99  A    between atoms: _235  and  _237
REMARK  100  A    between atoms: _237  and  _238
REMARK  101  A    between atoms: _237  and  _240
REMARK  102  A    between atoms: _240  and  _241
REMARK  103  A    between atoms: _246  and  _247
REMARK  104  A    between atoms: _249  and  _251
REMARK  105  A    between atoms: _251  and  _252
REMARK  106  A    between atoms: _251  and  _254
REMARK  107  A    between atoms: _254  and  _255
REMARK  108  A    between atoms: _258  and  _260
REMARK  109  A    between atoms: _260  and  _261
REMARK  110  A    between atoms: _260  and  _263
REMARK  111  A    between atoms: _263  and  _264
REMARK  112  A    between atoms: _270  and  _272
REMARK  113  A    between atoms: _272  and  _273
REMARK  114  A    between atoms: _272  and  _275
REMARK  115  A    between atoms: _275  and  _276
REMARK  116  A    between atoms: _279  and  _281
REMARK  117  A    between atoms: _281  and  _282
REMARK  118  A    between atoms: _281  and  _284
REMARK  119  A    between atoms: _284  and  _285
REMARK  120  A    between atoms: _285  and  _286
REMARK  121  A    between atoms: _289  and  _291
REMARK  122  A    between atoms: _291  and  _292
REMARK  123  A    between atoms: _291  and  _294
REMARK  124  A    between atoms: _294  and  _295
REMARK  125  A    between atoms: _300  and  _301
REMARK  126  A    between atoms: _303  and  _305
REMARK  127  A    between atoms: _305  and  _306
REMARK  128  A    between atoms: _305  and  _308
REMARK  129  A    between atoms: _310  and  _312
REMARK  130  A    between atoms: _312  and  _313
REMARK  131  A    between atoms: _312  and  _315
REMARK  132  A    between atoms: _315  and  _316
REMARK  133  A    between atoms: _318  and  _320
REMARK  134  A    between atoms: _320  and  _321
REMARK  135  A    between atoms: _323  and  _325
REMARK  136  A    between atoms: _325  and  _326
REMARK  137  A    between atoms: _328  and  _330
REMARK  138  A    between atoms: _330  and  _331
REMARK  139  A    between atoms: _330  and  _333
REMARK  140  A    between atoms: _333  and  _334
REMARK  141  A    between atoms: _334  and  _335
REMARK  142  A    between atoms: _338  and  _340
REMARK  143  A    between atoms: _340  and  _341
REMARK  144  A    between atoms: _340  and  _343
REMARK  145  A    between atoms: _343  and  _344
REMARK  146  A    between atoms: _347  and  _349
REMARK  147  A    between atoms: _349  and  _350
REMARK  148  A    between atoms: _349  and  _352
REMARK  149  A    between atoms: _352  and  _353
REMARK  150  A    between atoms: _359  and  _361
REMARK  151  A    between atoms: _361  and  _362
REMARK  152  A    between atoms: _361  and  _364
REMARK  153  A    between atoms: _364  and  _365
REMARK  154  A    between atoms: _368  and  _370
REMARK  155  A    between atoms: _370  and  _371
REMARK  156  A    between atoms: _370  and  _373
REMARK  157  A    between atoms: _373  and  _374
REMARK  158  A    between atoms: _379  and  _381
REMARK  159  A    between atoms: _381  and  _382
REMARK  160  A    between atoms: _381  and  _384
REMARK  161  A    between atoms: _384  and  _385
REMARK  162  A    between atoms: _388  and  _390
REMARK  163  A    between atoms: _390  and  _391
REMARK  164  A    between atoms: _390  and  _393
REMARK  165  A    between atoms: _393  and  _394
REMARK  166  A    between atoms: _394  and  _395
REMARK  167  A    between atoms: _395  and  _396
REMARK  168  A    between atoms: _396  and  _397
REMARK  169  A    between atoms: _402  and  _403
REMARK  170  A    between atoms: _408  and  _410
REMARK  171  A    between atoms: _410  and  _411
REMARK  172  A    between atoms: _410  and  _413
REMARK  173  A    between atoms: _413  and  _414
REMARK  174  A    between atoms: _414  and  _415
REMARK  175  A    between atoms: _418  and  _420
REMARK  176  A    between atoms: _420  and  _421
REMARK  177  A    between atoms: _420  and  _423
REMARK  178  A    between atoms: _423  and  _424
REMARK  179  A    between atoms: _429  and  _431
REMARK  180  A    between atoms: _431  and  _432
REMARK  181  A    between atoms: _431  and  _434
REMARK  182  A    between atoms: _434  and  _435
REMARK  183  A    between atoms: _438  and  _440
REMARK  184  A    between atoms: _440  and  _441
REMARK  185  A    between atoms: _440  and  _443
REMARK  186  A    between atoms: _443  and  _444
REMARK  187  A    between atoms: _447  and  _449
REMARK  188  A    between atoms: _449  and  _450
REMARK  189  A    between atoms: _449  and  _452
REMARK  190  A    between atoms: _452  and  _453
REMARK  191  A    between atoms: _456  and  _458
REMARK  192  A    between atoms: _458  and  _459
REMARK  193  A    between atoms: _458  and  _461
REMARK  194  A    between atoms: _461  and  _462
REMARK  195  A    between atoms: _465  and  _467
REMARK  196  A    between atoms: _467  and  _468
REMARK  197  A    between atoms: _467  and  _470
REMARK  198  A    between atoms: _470  and  _471
REMARK  199  A    between atoms: _471  and  _472
REMARK  200  A    between atoms: _472  and  _473
REMARK  201  A    between atoms: _473  and  _474
REMARK  202  A    between atoms: _478  and  _480
REMARK  203  A    between atoms: _480  and  _481
REMARK  204  A    between atoms: _480  and  _483
REMARK  205  A    between atoms: _483  and  _484
REMARK  206  A    between atoms: _487  and  _489
REMARK  207  A    between atoms: _489  and  _490
REMARK  208  A    between atoms: _489  and  _492
REMARK  209  A    between atoms: _492  and  _493
REMARK  210  A    between atoms: _495  and  _497
REMARK  211  A    between atoms: _497  and  _498
REMARK  212  A    between atoms: _497  and  _500
REMARK  213  A    between atoms: _500  and  _501
REMARK  214  A    between atoms: _504  and  _506
REMARK  215  A    between atoms: _506  and  _507
REMARK  216  A    between atoms: _506  and  _509
REMARK  217  A    between atoms: _509  and  _510
REMARK  218  A    between atoms: _516  and  _518
REMARK  219  A    between atoms: _518  and  _519
REMARK  220  A    between atoms: _521  and  _523
REMARK  221  A    between atoms: _523  and  _524
REMARK  222  A    between atoms: _523  and  _526
REMARK  223  A    between atoms: _526  and  _527
REMARK                            x       y       z     vdW  Elec       q    Type
REMARK                         _______ _______ _______ _____ _____    ______ ____
ROOT
ATOM      1  O   HOH     1       7.424  15.095  24.715  0.00  0.00    +0.000 OA
ENDROOT
TORSDOF 0
REMARK  Name = ../refined-set-2016/1nvq/1nvq_pocket.pdb
REMARK  223 active torsions:
REMARK  status: ('A' for Active; 'I' for Inactive)
REMARK    1  A    between atoms: _1  and  _3
REMARK    2  A    between atoms: _3  and  _4
REMARK    3  A    between atoms: _3  and  _6
REMARK    4  A    between atoms: _6  and  _7
REMARK    5  A    between atoms: _7  and  _8
REMARK    6  A    between atoms: _13  and  _15
REMARK    7  A    between atoms: _15  and  _16
REMARK    8  A    between atoms: _15  and  _18
REMARK    9  A    between atoms: _18  and  _19
REMARK   10  A    between atoms: _22  and  _24
REMARK   11  A    between atoms: _24  and  _25
REMARK   12  A    between atoms: _24  and  _27
REMARK   13  A    between atoms: _27  and  _28
REMARK   14  A    between atoms: _31  and  _33
REMARK   15  A    between atoms: _33  and  _34
REMARK   16  A    between atoms: _36  and  _38
REMARK   17  A    between atoms: _38  and  _39
REMARK   18  A    between atoms: _38  and  _41
REMARK   19  A    between atoms: _41  and  _42
REMARK   20  A    between atoms: _42  and  _43
REMARK   21  A    between atoms: _46  and  _48
REMARK   22  A    between atoms: _48  and  _49
REMARK   23  A    between atoms: _51  and  _53
REMARK   24  A    between atoms: _53  and  _54
REMARK   25  A    between atoms: _53  and  _56
REMARK   26  A    between atoms: _56  and  _57
REMARK   27  A    between atoms: _62  and  _63
REMARK   28  A    between atoms: _65  and  _67
REMARK   29  A    between atoms: _67  and  _68
REMARK   30  A    between atoms: _70  and  _72
REMARK   31  A    between atoms: _72  and  _73
REMARK   32  A    between atoms: _72  and  _75
REMARK   33  A    between atoms: _75  and  _76
REMARK   34  A    between atoms: _76  and  _77
REMARK   35  A    between atoms: _80  and  _82
REMARK   36  A    between atoms: _82  and  _83
REMARK   37  A    between atoms: _82  and  _85
REMARK   38  A    between atoms: _88  and  _90
REMARK   39  A    between atoms: _90  and  _91
REMARK   40  A    between atoms: _90  and  _93
REMARK   41  A    between atoms: _93  and  _94
REMARK   42  A    between atoms: _94  and  _95
REMARK   43  A    between atoms: _100  and  _102
REMARK   44  A    between atoms: _102  and  _103
REMARK   45  A    between atoms: _102  and  _105
REMARK   46  A    between atoms: _105  and  _106
REMARK   47  A    between atoms: _109  and  _111
REMARK   48  A    between atoms: _111  and  _112
REMARK   49  A    between atoms: _115  and  _117
REMARK   50  A    between atoms: _117  and  _118
REMARK   51  A    between atoms: _121  and  _123
REMARK   52  A    between atoms: _123  and  _124
REMARK   53  A    between atoms: _123  and  _126
REMARK   54  A    between atoms: _129  and  _131
REMARK   55  A    between atoms: _131  and  _132
REMARK   56  A    between atoms: _135  and  _137
REMARK   57  A    between atoms: _137  and  _138
REMARK   58  A    between atoms: _137  and  _140
REMARK   59  A    between atoms: _143  and  _145
REMARK   60  A    between atoms: _145  and  _146
REMARK   61  A    between atoms: _145  and  _148
REMARK   62  A    between atoms: _148  and  _149
REMARK   63  A    between atoms: _149  and  _150
REMARK   64  A    between atoms: _150  and  _151
REMARK   65  A    between atoms: _151  and  _152
REMARK   66  A    between atoms: _156  and  _158
REMARK   67  A    between atoms: _158  and  _159
REMARK   68  A    between atoms: _158  and  _161
REMARK   69  A    between atoms: _161  and  _162
REMARK   70  A    between atoms: _165  and  _167
REMARK   71  A    between atoms: _167  and  _168
REMARK   72  A    between atoms: _167  and  _170
REMARK   73  A    between atoms: _173  and  _175
REMARK   74  A    between atoms: _175  and  _176
REMARK   75  A    between atoms: _175  and  _178
REMARK   76  A    between atoms: _178  and  _179
REMARK   77  A    between atoms: _179  and  _180
REMARK   78  A    between atoms: _183  and  _185
REMARK   79  A    between atoms: _185  and  _186
REMARK   80  A    between atoms: _185  and  _188
REMARK   81  A    between atoms: _188  and  _189
REMARK   82  A    between atoms: _194  and  _196
REMARK   83  A    between atoms: _196  and  _197
REMARK   84  A    between atoms: _196  and  _199
REMARK   85  A    between atoms: _202  and  _204
REMARK   86  A    between atoms: _204  and  _205
REMARK   87  A    between atoms: _204  and  _207
REMARK   88  A    between atoms: _210  and  _212
REMARK   89  A    between atoms: _212  and  _213
REMARK   90  A    between atoms: _212  and  _215
REMARK   91  A    between atoms: _215  and  _216
REMARK   92  A    between atoms: _216  and  _217
REMARK   93  A    between atoms: _217  and  _218
REMARK   94  A    between atoms: _218  and  _219
REMARK   95  A    between atoms: _223  and  _225
REMARK   96  A    between atoms: _225  and  _226
REMARK   97  A    between atoms: _225  and  _228
REMARK   98  A    between atoms: _228  and  _229
REMARK   99  A    between atoms: _235  and  _237
REMARK  100  A    between atoms: _237  and  _238
REMARK  101  A    between atoms: _237  and  _240
REMARK  102  A    between atoms: _240  and  _241
REMARK  103  A    between atoms: _246  and  _247
REMARK  104  A    between atoms: _249  and  _251
REMARK  105  A    between atoms: _251  and  _252
REMARK  106  A    between atoms: _251  and  _254
REMARK  107  A    between atoms: _254  and  _255
REMARK  108  A    between atoms: _258  and  _260
REMARK  109  A    between atoms: _260  and  _261
REMARK  110  A    between atoms: _260  and  _263
REMARK  111  A    between atoms: _263  and  _264
REMARK  112  A    between atoms: _270  and  _272
REMARK  113  A    between atoms: _272  and  _273
REMARK  114  A    between atoms: _272  and  _275
REMARK  115  A    between atoms: _275  and  _276
REMARK  116  A    between atoms: _279  and  _281
REMARK  117  A    between atoms: _281  and  _282
REMARK  118  A    between atoms: _281  and  _284
REMARK  119  A    between atoms: _284  and  _285
REMARK  120  A    between atoms: _285  and  _286
REMARK  121  A    between atoms: _289  and  _291
REMARK  122  A    between atoms: _291  and  _292
REMARK  123  A    between atoms: _291  and  _294
REMARK  124  A    between atoms: _294  and  _295
REMARK  125  A    between atoms: _300  and  _301
REMARK  126  A    between atoms: _303  and  _305
REMARK  127  A    between atoms: _305  and  _306
REMARK  128  A    between atoms: _305  and  _308
REMARK  129  A    between atoms: _310  and  _312
REMARK  130  A    between atoms: _312  and  _313
REMARK  131  A    between atoms: _312  and  _315
REMARK  132  A    between atoms: _315  and  _316
REMARK  133  A    between atoms: _318  and  _320
REMARK  134  A    between atoms: _320  and  _321
REMARK  135  A    between atoms: _323  and  _325
REMARK  136  A    between atoms: _325  and  _326
REMARK  137  A    between atoms: _328  and  _330
REMARK  138  A    between atoms: _330  and  _331
REMARK  139  A    between atoms: _330  and  _333
REMARK  140  A    between atoms: _333  and  _334
REMARK  141  A    between atoms: _334  and  _335
REMARK  142  A    between atoms: _338  and  _340
REMARK  143  A    between atoms: _340  and  _341
REMARK  144  A    between atoms: _340  and  _343
REMARK  145  A    between atoms: _343  and  _344
REMARK  146  A    between atoms: _347  and  _349
REMARK  147  A    between atoms: _349  and  _350
REMARK  148  A    between atoms: _349  and  _352
REMARK  149  A    between atoms: _352  and  _353
REMARK  150  A    between atoms: _359  and  _361
REMARK  151  A    between atoms: _361  and  _362
REMARK  152  A    between atoms: _361  and  _364
REMARK  153  A    between atoms: _364  and  _365
REMARK  154  A    between atoms: _368  and  _370
REMARK  155  A    between atoms: _370  and  _371
REMARK  156  A    between atoms: _370  and  _373
REMARK  157  A    between atoms: _373  and  _374
REMARK  158  A    between atoms: _379  and  _381
REMARK  159  A    between atoms: _381  and  _382
REMARK  160  A    between atoms: _381  and  _384
REMARK  161  A    between atoms: _384  and  _385
REMARK  162  A    between atoms: _388  and  _390
REMARK  163  A    between atoms: _390  and  _391
REMARK  164  A    between atoms: _390  and  _393
REMARK  165  A    between atoms: _393  and  _394
REMARK  166  A    between atoms: _394  and  _395
REMARK  167  A    between atoms: _395  and  _396
REMARK  168  A    between atoms: _396  and  _397
REMARK  169  A    between atoms: _402  and  _403
REMARK  170  A    between atoms: _408  and  _410
REMARK  171  A    between atoms: _410  and  _411
REMARK  172  A    between atoms: _410  and  _413
REMARK  173  A    between atoms: _413  and  _414
REMARK  174  A    between atoms: _414  and  _415
REMARK  175  A    between atoms: _418  and  _420
REMARK  176  A    between atoms: _420  and  _421
REMARK  177  A    between atoms: _420  and  _423
REMARK  178  A    between atoms: _423  and  _424
REMARK  179  A    between atoms: _429  and  _431
REMARK  180  A    between atoms: _431  and  _432
REMARK  181  A    between atoms: _431  and  _434
REMARK  182  A    between atoms: _434  and  _435
REMARK  183  A    between atoms: _438  and  _440
REMARK  184  A    between atoms: _440  and  _441
REMARK  185  A    between atoms: _440  and  _443
REMARK  186  A    between atoms: _443  and  _444
REMARK  187  A    between atoms: _447  and  _449
REMARK  188  A    between atoms: _449  and  _450
REMARK  189  A    between atoms: _449  and  _452
REMARK  190  A    between atoms: _452  and  _453
REMARK  191  A    between atoms: _456  and  _458
REMARK  192  A    between atoms: _458  and  _459
REMARK  193  A    between atoms: _458  and  _461
REMARK  194  A    between atoms: _461  and  _462
REMARK  195  A    between atoms: _465  and  _467
REMARK  196  A    between atoms: _467  and  _468
REMARK  197  A    between atoms: _467  and  _470
REMARK  198  A    between atoms: _470  and  _471
REMARK  199  A    between atoms: _471  and  _472
REMARK  200  A    between atoms: _472  and  _473
REMARK  201  A    between atoms: _473  and  _474
REMARK  202  A    between atoms: _478  and  _480
REMARK  203  A    between atoms: _480  and  _481
REMARK  204  A    between atoms: _480  and  _483
REMARK  205  A    between atoms: _483  and  _484
REMARK  206  A    between atoms: _487  and  _489
REMARK  207  A    between atoms: _489  and  _490
REMARK  208  A    between atoms: _489  and  _492
REMARK  209  A    between atoms: _492  and  _493
REMARK  210  A    between atoms: _495  and  _497
REMARK  211  A    between atoms: _497  and  _498
REMARK  212  A    between atoms: _497  and  _500
REMARK  213  A    between atoms: _500  and  _501
REMARK  214  A    between atoms: _504  and  _506
REMARK  215  A    between atoms: _506  and  _507
REMARK  216  A    between atoms: _506  and  _509
REMARK  217  A    between atoms: _509  and  _510
REMARK  218  A    between atoms: _516  and  _518
REMARK  219  A    between atoms: _518  and  _519
REMARK  220  A    between atoms: _521  and  _523
REMARK  221  A    between atoms: _523  and  _524
REMARK  222  A    between atoms: _523  and  _526
REMARK  223  A    between atoms: _526  and  _527
REMARK                            x       y       z     vdW  Elec       q    Type
REMARK                         _______ _______ _______ _____ _____    ______ ____
ROOT
ATOM      1  O   HOH     1       1.612  16.158  22.320  0.00  0.00    +0.000 OA
ENDROOT
TORSDOF 0
REMARK  Name = ../refined-set-2016/1nvq/1nvq_pocket.pdb
REMARK  223 active torsions:
REMARK  status: ('A' for Active; 'I' for Inactive)
REMARK    1  A    between atoms: _1  and  _3
REMARK    2  A    between atoms: _3  and  _4
REMARK    3  A    between atoms: _3  and  _6
REMARK    4  A    between atoms: _6  and  _7
REMARK    5  A    between atoms: _7  and  _8
REMARK    6  A    between atoms: _13  and  _15
REMARK    7  A    between atoms: _15  and  _16
REMARK    8  A    between atoms: _15  and  _18
REMARK    9  A    between atoms: _18  and  _19
REMARK   10  A    between atoms: _22  and  _24
REMARK   11  A    between atoms: _24  and  _25
REMARK   12  A    between atoms: _24  and  _27
REMARK   13  A    between atoms: _27  and  _28
REMARK   14  A    between atoms: _31  and  _33
REMARK   15  A    between atoms: _33  and  _34
REMARK   16  A    between atoms: _36  and  _38
REMARK   17  A    between atoms: _38  and  _39
REMARK   18  A    between atoms: _38  and  _41
REMARK   19  A    between atoms: _41  and  _42
REMARK   20  A    between atoms: _42  and  _43
REMARK   21  A    between atoms: _46  and  _48
REMARK   22  A    between atoms: _48  and  _49
REMARK   23  A    between atoms: _51  and  _53
REMARK   24  A    between atoms: _53  and  _54
REMARK   25  A    between atoms: _53  and  _56
REMARK   26  A    between atoms: _56  and  _57
REMARK   27  A    between atoms: _62  and  _63
REMARK   28  A    between atoms: _65  and  _67
REMARK   29  A    between atoms: _67  and  _68
REMARK   30  A    between atoms: _70  and  _72
REMARK   31  A    between atoms: _72  and  _73
REMARK   32  A    between atoms: _72  and  _75
REMARK   33  A    between atoms: _75  and  _76
REMARK   34  A    between atoms: _76  and  _77
REMARK   35  A    between atoms: _80  and  _82
REMARK   36  A    between atoms: _82  and  _83
REMARK   37  A    between atoms: _82  and  _85
REMARK   38  A    between atoms: _88  and  _90
REMARK   39  A    between atoms: _90  and  _91
REMARK   40  A    between atoms: _90  and  _93
REMARK   41  A    between atoms: _93  and  _94
REMARK   42  A    between atoms: _94  and  _95
REMARK   43  A    between atoms: _100  and  _102
REMARK   44  A    between atoms: _102  and  _103
REMARK   45  A    between atoms: _102  and  _105
REMARK   46  A    between atoms: _105  and  _106
REMARK   47  A    between atoms: _109  and  _111
REMARK   48  A    between atoms: _111  and  _112
REMARK   49  A    between atoms: _115  and  _117
REMARK   50  A    between atoms: _117  and  _118
REMARK   51  A    between atoms: _121  and  _123
REMARK   52  A    between atoms: _123  and  _124
REMARK   53  A    between atoms: _123  and  _126
REMARK   54  A    between atoms: _129  and  _131
REMARK   55  A    between atoms: _131  and  _132
REMARK   56  A    between atoms: _135  and  _137
REMARK   57  A    between atoms: _137  and  _138
REMARK   58  A    between atoms: _137  and  _140
REMARK   59  A    between atoms: _143  and  _145
REMARK   60  A    between atoms: _145  and  _146
REMARK   61  A    between atoms: _145  and  _148
REMARK   62  A    between atoms: _148  and  _149
REMARK   63  A    between atoms: _149  and  _150
REMARK   64  A    between atoms: _150  and  _151
REMARK   65  A    between atoms: _151  and  _152
REMARK   66  A    between atoms: _156  and  _158
REMARK   67  A    between atoms: _158  and  _159
REMARK   68  A    between atoms: _158  and  _161
REMARK   69  A    between atoms: _161  and  _162
REMARK   70  A    between atoms: _165  and  _167
REMARK   71  A    between atoms: _167  and  _168
REMARK   72  A    between atoms: _167  and  _170
REMARK   73  A    between atoms: _173  and  _175
REMARK   74  A    between atoms: _175  and  _176
REMARK   75  A    between atoms: _175  and  _178
REMARK   76  A    between atoms: _178  and  _179
REMARK   77  A    between atoms: _179  and  _180
REMARK   78  A    between atoms: _183  and  _185
REMARK   79  A    between atoms: _185  and  _186
REMARK   80  A    between atoms: _185  and  _188
REMARK   81  A    between atoms: _188  and  _189
REMARK   82  A    between atoms: _194  and  _196
REMARK   83  A    between atoms: _196  and  _197
REMARK   84  A    between atoms: _196  and  _199
REMARK   85  A    between atoms: _202  and  _204
REMARK   86  A    between atoms: _204  and  _205
REMARK   87  A    between atoms: _204  and  _207
REMARK   88  A    between atoms: _210  and  _212
REMARK   89  A    between atoms: _212  and  _213
REMARK   90  A    between atoms: _212  and  _215
REMARK   91  A    between atoms: _215  and  _216
REMARK   92  A    between atoms: _216  and  _217
REMARK   93  A    between atoms: _217  and  _218
REMARK   94  A    between atoms: _218  and  _219
REMARK   95  A    between atoms: _223  and  _225
REMARK   96  A    between atoms: _225  and  _226
REMARK   97  A    between atoms: _225  and  _228
REMARK   98  A    between atoms: _228  and  _229
REMARK   99  A    between atoms: _235  and  _237
REMARK  100  A    between atoms: _237  and  _238
REMARK  101  A    between atoms: _237  and  _240
REMARK  102  A    between atoms: _240  and  _241
REMARK  103  A    between atoms: _246  and  _247
REMARK  104  A    between atoms: _249  and  _251
REMARK  105  A    between atoms: _251  and  _252
REMARK  106  A    between atoms: _251  and  _254
REMARK  107  A    between atoms: _254  and  _255
REMARK  108  A    between atoms: _258  and  _260
REMARK  109  A    between atoms: _260  and  _261
REMARK  110  A    between atoms: _260  and  _263
REMARK  111  A    between atoms: _263  and  _264
REMARK  112  A    between atoms: _270  and  _272
REMARK  113  A    between atoms: _272  and  _273
REMARK  114  A    between atoms: _272  and  _275
REMARK  115  A    between atoms: _275  and  _276
REMARK  116  A    between atoms: _279  and  _281
REMARK  117  A    between atoms: _281  and  _282
REMARK  118  A    between atoms: _281  and  _284
REMARK  119  A    between atoms: _284  and  _285
REMARK  120  A    between atoms: _285  and  _286
REMARK  121  A    between atoms: _289  and  _291
REMARK  122  A    between atoms: _291  and  _292
REMARK  123  A    between atoms: _291  and  _294
REMARK  124  A    between atoms: _294  and  _295
REMARK  125  A    between atoms: _300  and  _301
REMARK  126  A    between atoms: _303  and  _305
REMARK  127  A    between atoms: _305  and  _306
REMARK  128  A    between atoms: _305  and  _308
REMARK  129  A    between atoms: _310  and  _312
REMARK  130  A    between atoms: _312  and  _313
REMARK  131  A    between atoms: _312  and  _315
REMARK  132  A    between atoms: _315  and  _316
REMARK  133  A    between atoms: _318  and  _320
REMARK  134  A    between atoms: _320  and  _321
REMARK  135  A    between atoms: _323  and  _325
REMARK  136  A    between atoms: _325  and  _326
REMARK  137  A    between atoms: _328  and  _330
REMARK  138  A    between atoms: _330  and  _331
REMARK  139  A    between atoms: _330  and  _333
REMARK  140  A    between atoms: _333  and  _334
REMARK  141  A    between atoms: _334  and  _335
REMARK  142  A    between atoms: _338  and  _340
REMARK  143  A    between atoms: _340  and  _341
REMARK  144  A    between atoms: _340  and  _343
REMARK  145  A    between atoms: _343  and  _344
REMARK  146  A    between atoms: _347  and  _349
REMARK  147  A    between atoms: _349  and  _350
REMARK  148  A    between atoms: _349  and  _352
REMARK  149  A    between atoms: _352  and  _353
REMARK  150  A    between atoms: _359  and  _361
REMARK  151  A    between atoms: _361  and  _362
REMARK  152  A    between atoms: _361  and  _364
REMARK  153  A    between atoms: _364  and  _365
REMARK  154  A    between atoms: _368  and  _370
REMARK  155  A    between atoms: _370  and  _371
REMARK  156  A    between atoms: _370  and  _373
REMARK  157  A    between atoms: _373  and  _374
REMARK  158  A    between atoms: _379  and  _381
REMARK  159  A    between atoms: _381  and  _382
REMARK  160  A    between atoms: _381  and  _384
REMARK  161  A    between atoms: _384  and  _385
REMARK  162  A    between atoms: _388  and  _390
REMARK  163  A    between atoms: _390  and  _391
REMARK  164  A    between atoms: _390  and  _393
REMARK  165  A    between atoms: _393  and  _394
REMARK  166  A    between atoms: _394  and  _395
REMARK  167  A    between atoms: _395  and  _396
REMARK  168  A    between atoms: _396  and  _397
REMARK  169  A    between atoms: _402  and  _403
REMARK  170  A    between atoms: _408  and  _410
REMARK  171  A    between atoms: _410  and  _411
REMARK  172  A    between atoms: _410  and  _413
REMARK  173  A    between atoms: _413  and  _414
REMARK  174  A    between atoms: _414  and  _415
REMARK  175  A    between atoms: _418  and  _420
REMARK  176  A    between atoms: _420  and  _421
REMARK  177  A    between atoms: _420  and  _423
REMARK  178  A    between atoms: _423  and  _424
REMARK  179  A    between atoms: _429  and  _431
REMARK  180  A    between atoms: _431  and  _432
REMARK  181  A    between atoms: _431  and  _434
REMARK  182  A    between atoms: _434  and  _435
REMARK  183  A    between atoms: _438  and  _440
REMARK  184  A    between atoms: _440  and  _441
REMARK  185  A    between atoms: _440  and  _443
REMARK  186  A    between atoms: _443  and  _444
REMARK  187  A    between atoms: _447  and  _449
REMARK  188  A    between atoms: _449  and  _450
REMARK  189  A    between atoms: _449  and  _452
REMARK  190  A    between atoms: _452  and  _453
REMARK  191  A    between atoms: _456  and  _458
REMARK  192  A    between atoms: _458  and  _459
REMARK  193  A    between atoms: _458  and  _461
REMARK  194  A    between atoms: _461  and  _462
REMARK  195  A    between atoms: _465  and  _467
REMARK  196  A    between atoms: _467  and  _468
REMARK  197  A    between atoms: _467  and  _470
REMARK  198  A    between atoms: _470  and  _471
REMARK  199  A    between atoms: _471  and  _472
REMARK  200  A    between atoms: _472  and  _473
REMARK  201  A    between atoms: _473  and  _474
REMARK  202  A    between atoms: _478  and  _480
REMARK  203  A    between atoms: _480  and  _481
REMARK  204  A    between atoms: _480  and  _483
REMARK  205  A    between atoms: _483  and  _484
REMARK  206  A    between atoms: _487  and  _489
REMARK  207  A    between atoms: _489  and  _490
REMARK  208  A    between atoms: _489  and  _492
REMARK  209  A    between atoms: _492  and  _493
REMARK  210  A    between atoms: _495  and  _497
REMARK  211  A    between atoms: _497  and  _498
REMARK  212  A    between atoms: _497  and  _500
REMARK  213  A    between atoms: _500  and  _501
REMARK  214  A    between atoms: _504  and  _506
REMARK  215  A    between atoms: _506  and  _507
REMARK  216  A    between atoms: _506  and  _509
REMARK  217  A    between atoms: _509  and  _510
REMARK  218  A    between atoms: _516  and  _518
REMARK  219  A    between atoms: _518  and  _519
REMARK  220  A    between atoms: _521  and  _523
REMARK  221  A    between atoms: _523  and  _524
REMARK  222  A    between atoms: _523  and  _526
REMARK  223  A    between atoms: _526  and  _527
REMARK                            x       y       z     vdW  Elec       q    Type
REMARK                         _______ _______ _______ _____ _____    ______ ____
ROOT
ATOM      1  O   HOH     1      -3.299   7.060  16.524  0.00  0.00    +0.000 OA
ENDROOT
TORSDOF 0
REMARK  Name = ../refined-set-2016/1nvq/1nvq_pocket.pdb
REMARK  223 active torsions:
REMARK  status: ('A' for Active; 'I' for Inactive)
REMARK    1  A    between atoms: _1  and  _3
REMARK    2  A    between atoms: _3  and  _4
REMARK    3  A    between atoms: _3  and  _6
REMARK    4  A    between atoms: _6  and  _7
REMARK    5  A    between atoms: _7  and  _8
REMARK    6  A    between atoms: _13  and  _15
REMARK    7  A    between atoms: _15  and  _16
REMARK    8  A    between atoms: _15  and  _18
REMARK    9  A    between atoms: _18  and  _19
REMARK   10  A    between atoms: _22  and  _24
REMARK   11  A    between atoms: _24  and  _25
REMARK   12  A    between atoms: _24  and  _27
REMARK   13  A    between atoms: _27  and  _28
REMARK   14  A    between atoms: _31  and  _33
REMARK   15  A    between atoms: _33  and  _34
REMARK   16  A    between atoms: _36  and  _38
REMARK   17  A    between atoms: _38  and  _39
REMARK   18  A    between atoms: _38  and  _41
REMARK   19  A    between atoms: _41  and  _42
REMARK   20  A    between atoms: _42  and  _43
REMARK   21  A    between atoms: _46  and  _48
REMARK   22  A    between atoms: _48  and  _49
REMARK   23  A    between atoms: _51  and  _53
REMARK   24  A    between atoms: _53  and  _54
REMARK   25  A    between atoms: _53  and  _56
REMARK   26  A    between atoms: _56  and  _57
REMARK   27  A    between atoms: _62  and  _63
REMARK   28  A    between atoms: _65  and  _67
REMARK   29  A    between atoms: _67  and  _68
REMARK   30  A    between atoms: _70  and  _72
REMARK   31  A    between atoms: _72  and  _73
REMARK   32  A    between atoms: _72  and  _75
REMARK   33  A    between atoms: _75  and  _76
REMARK   34  A    between atoms: _76  and  _77
REMARK   35  A    between atoms: _80  and  _82
REMARK   36  A    between atoms: _82  and  _83
REMARK   37  A    between atoms: _82  and  _85
REMARK   38  A    between atoms: _88  and  _90
REMARK   39  A    between atoms: _90  and  _91
REMARK   40  A    between atoms: _90  and  _93
REMARK   41  A    between atoms: _93  and  _94
REMARK   42  A    between atoms: _94  and  _95
REMARK   43  A    between atoms: _100  and  _102
REMARK   44  A    between atoms: _102  and  _103
REMARK   45  A    between atoms: _102  and  _105
REMARK   46  A    between atoms: _105  and  _106
REMARK   47  A    between atoms: _109  and  _111
REMARK   48  A    between atoms: _111  and  _112
REMARK   49  A    between atoms: _115  and  _117
REMARK   50  A    between atoms: _117  and  _118
REMARK   51  A    between atoms: _121  and  _123
REMARK   52  A    between atoms: _123  and  _124
REMARK   53  A    between atoms: _123  and  _126
REMARK   54  A    between atoms: _129  and  _131
REMARK   55  A    between atoms: _131  and  _132
REMARK   56  A    between atoms: _135  and  _137
REMARK   57  A    between atoms: _137  and  _138
REMARK   58  A    between atoms: _137  and  _140
REMARK   59  A    between atoms: _143  and  _145
REMARK   60  A    between atoms: _145  and  _146
REMARK   61  A    between atoms: _145  and  _148
REMARK   62  A    between atoms: _148  and  _149
REMARK   63  A    between atoms: _149  and  _150
REMARK   64  A    between atoms: _150  and  _151
REMARK   65  A    between atoms: _151  and  _152
REMARK   66  A    between atoms: _156  and  _158
REMARK   67  A    between atoms: _158  and  _159
REMARK   68  A    between atoms: _158  and  _161
REMARK   69  A    between atoms: _161  and  _162
REMARK   70  A    between atoms: _165  and  _167
REMARK   71  A    between atoms: _167  and  _168
REMARK   72  A    between atoms: _167  and  _170
REMARK   73  A    between atoms: _173  and  _175
REMARK   74  A    between atoms: _175  and  _176
REMARK   75  A    between atoms: _175  and  _178
REMARK   76  A    between atoms: _178  and  _179
REMARK   77  A    between atoms: _179  and  _180
REMARK   78  A    between atoms: _183  and  _185
REMARK   79  A    between atoms: _185  and  _186
REMARK   80  A    between atoms: _185  and  _188
REMARK   81  A    between atoms: _188  and  _189
REMARK   82  A    between atoms: _194  and  _196
REMARK   83  A    between atoms: _196  and  _197
REMARK   84  A    between atoms: _196  and  _199
REMARK   85  A    between atoms: _202  and  _204
REMARK   86  A    between atoms: _204  and  _205
REMARK   87  A    between atoms: _204  and  _207
REMARK   88  A    between atoms: _210  and  _212
REMARK   89  A    between atoms: _212  and  _213
REMARK   90  A    between atoms: _212  and  _215
REMARK   91  A    between atoms: _215  and  _216
REMARK   92  A    between atoms: _216  and  _217
REMARK   93  A    between atoms: _217  and  _218
REMARK   94  A    between atoms: _218  and  _219
REMARK   95  A    between atoms: _223  and  _225
REMARK   96  A    between atoms: _225  and  _226
REMARK   97  A    between atoms: _225  and  _228
REMARK   98  A    between atoms: _228  and  _229
REMARK   99  A    between atoms: _235  and  _237
REMARK  100  A    between atoms: _237  and  _238
REMARK  101  A    between atoms: _237  and  _240
REMARK  102  A    between atoms: _240  and  _241
REMARK  103  A    between atoms: _246  and  _247
REMARK  104  A    between atoms: _249  and  _251
REMARK  105  A    between atoms: _251  and  _252
REMARK  106  A    between atoms: _251  and  _254
REMARK  107  A    between atoms: _254  and  _255
REMARK  108  A    between atoms: _258  and  _260
REMARK  109  A    between atoms: _260  and  _261
REMARK  110  A    between atoms: _260  and  _263
REMARK  111  A    between atoms: _263  and  _264
REMARK  112  A    between atoms: _270  and  _272
REMARK  113  A    between atoms: _272  and  _273
REMARK  114  A    between atoms: _272  and  _275
REMARK  115  A    between atoms: _275  and  _276
REMARK  116  A    between atoms: _279  and  _281
REMARK  117  A    between atoms: _281  and  _282
REMARK  118  A    between atoms: _281  and  _284
REMARK  119  A    between atoms: _284  and  _285
REMARK  120  A    between atoms: _285  and  _286
REMARK  121  A    between atoms: _289  and  _291
REMARK  122  A    between atoms: _291  and  _292
REMARK  123  A    between atoms: _291  and  _294
REMARK  124  A    between atoms: _294  and  _295
REMARK  125  A    between atoms: _300  and  _301
REMARK  126  A    between atoms: _303  and  _305
REMARK  127  A    between atoms: _305  and  _306
REMARK  128  A    between atoms: _305  and  _308
REMARK  129  A    between atoms: _310  and  _312
REMARK  130  A    between atoms: _312  and  _313
REMARK  131  A    between atoms: _312  and  _315
REMARK  132  A    between atoms: _315  and  _316
REMARK  133  A    between atoms: _318  and  _320
REMARK  134  A    between atoms: _320  and  _321
REMARK  135  A    between atoms: _323  and  _325
REMARK  136  A    between atoms: _325  and  _326
REMARK  137  A    between atoms: _328  and  _330
REMARK  138  A    between atoms: _330  and  _331
REMARK  139  A    between atoms: _330  and  _333
REMARK  140  A    between atoms: _333  and  _334
REMARK  141  A    between atoms: _334  and  _335
REMARK  142  A    between atoms: _338  and  _340
REMARK  143  A    between atoms: _340  and  _341
REMARK  144  A    between atoms: _340  and  _343
REMARK  145  A    between atoms: _343  and  _344
REMARK  146  A    between atoms: _347  and  _349
REMARK  147  A    between atoms: _349  and  _350
REMARK  148  A    between atoms: _349  and  _352
REMARK  149  A    between atoms: _352  and  _353
REMARK  150  A    between atoms: _359  and  _361
REMARK  151  A    between atoms: _361  and  _362
REMARK  152  A    between atoms: _361  and  _364
REMARK  153  A    between atoms: _364  and  _365
REMARK  154  A    between atoms: _368  and  _370
REMARK  155  A    between atoms: _370  and  _371
REMARK  156  A    between atoms: _370  and  _373
REMARK  157  A    between atoms: _373  and  _374
REMARK  158  A    between atoms: _379  and  _381
REMARK  159  A    between atoms: _381  and  _382
REMARK  160  A    between atoms: _381  and  _384
REMARK  161  A    between atoms: _384  and  _385
REMARK  162  A    between atoms: _388  and  _390
REMARK  163  A    between atoms: _390  and  _391
REMARK  164  A    between atoms: _390  and  _393
REMARK  165  A    between atoms: _393  and  _394
REMARK  166  A    between atoms: _394  and  _395
REMARK  167  A    between atoms: _395  and  _396
REMARK  168  A    between atoms: _396  and  _397
REMARK  169  A    between atoms: _402  and  _403
REMARK  170  A    between atoms: _408  and  _410
REMARK  171  A    between atoms: _410  and  _411
REMARK  172  A    between atoms: _410  and  _413
REMARK  173  A    between atoms: _413  and  _414
REMARK  174  A    between atoms: _414  and  _415
REMARK  175  A    between atoms: _418  and  _420
REMARK  176  A    between atoms: _420  and  _421
REMARK  177  A    between atoms: _420  and  _423
REMARK  178  A    between atoms: _423  and  _424
REMARK  179  A    between atoms: _429  and  _431
REMARK  180  A    between atoms: _431  and  _432
REMARK  181  A    between atoms: _431  and  _434
REMARK  182  A    between atoms: _434  and  _435
REMARK  183  A    between atoms: _438  and  _440
REMARK  184  A    between atoms: _440  and  _441
REMARK  185  A    between atoms: _440  and  _443
REMARK  186  A    between atoms: _443  and  _444
REMARK  187  A    between atoms: _447  and  _449
REMARK  188  A    between atoms: _449  and  _450
REMARK  189  A    between atoms: _449  and  _452
REMARK  190  A    between atoms: _452  and  _453
REMARK  191  A    between atoms: _456  and  _458
REMARK  192  A    between atoms: _458  and  _459
REMARK  193  A    between atoms: _458  and  _461
REMARK  194  A    between atoms: _461  and  _462
REMARK  195  A    between atoms: _465  and  _467
REMARK  196  A    between atoms: _467  and  _468
REMARK  197  A    between atoms: _467  and  _470
REMARK  198  A    between atoms: _470  and  _471
REMARK  199  A    between atoms: _471  and  _472
REMARK  200  A    between atoms: _472  and  _473
REMARK  201  A    between atoms: _473  and  _474
REMARK  202  A    between atoms: _478  and  _480
REMARK  203  A    between atoms: _480  and  _481
REMARK  204  A    between atoms: _480  and  _483
REMARK  205  A    between atoms: _483  and  _484
REMARK  206  A    between atoms: _487  and  _489
REMARK  207  A    between atoms: _489  and  _490
REMARK  208  A    between atoms: _489  and  _492
REMARK  209  A    between atoms: _492  and  _493
REMARK  210  A    between atoms: _495  and  _497
REMARK  211  A    between atoms: _497  and  _498
REMARK  212  A    between atoms: _497  and  _500
REMARK  213  A    between atoms: _500  and  _501
REMARK  214  A    between atoms: _504  and  _506
REMARK  215  A    between atoms: _506  and  _507
REMARK  216  A    between atoms: _506  and  _509
REMARK  217  A    between atoms: _509  and  _510
REMARK  218  A    between atoms: _516  and  _518
REMARK  219  A    between atoms: _518  and  _519
REMARK  220  A    between atoms: _521  and  _523
REMARK  221  A    between atoms: _523  and  _524
REMARK  222  A    between atoms: _523  and  _526
REMARK  223  A    between atoms: _526  and  _527
REMARK                            x       y       z     vdW  Elec       q    Type
REMARK                         _______ _______ _______ _____ _____    ______ ____
ROOT
ATOM      1  O   HOH     1      -5.218  10.580  15.756  0.00  0.00    +0.000 OA
ENDROOT
TORSDOF 0
REMARK  Name = ../refined-set-2016/1nvq/1nvq_pocket.pdb
REMARK  223 active torsions:
REMARK  status: ('A' for Active; 'I' for Inactive)
REMARK    1  A    between atoms: _1  and  _3
REMARK    2  A    between atoms: _3  and  _4
REMARK    3  A    between atoms: _3  and  _6
REMARK    4  A    between atoms: _6  and  _7
REMARK    5  A    between atoms: _7  and  _8
REMARK    6  A    between atoms: _13  and  _15
REMARK    7  A    between atoms: _15  and  _16
REMARK    8  A    between atoms: _15  and  _18
REMARK    9  A    between atoms: _18  and  _19
REMARK   10  A    between atoms: _22  and  _24
REMARK   11  A    between atoms: _24  and  _25
REMARK   12  A    between atoms: _24  and  _27
REMARK   13  A    between atoms: _27  and  _28
REMARK   14  A    between atoms: _31  and  _33
REMARK   15  A    between atoms: _33  and  _34
REMARK   16  A    between atoms: _36  and  _38
REMARK   17  A    between atoms: _38  and  _39
REMARK   18  A    between atoms: _38  and  _41
REMARK   19  A    between atoms: _41  and  _42
REMARK   20  A    between atoms: _42  and  _43
REMARK   21  A    between atoms: _46  and  _48
REMARK   22  A    between atoms: _48  and  _49
REMARK   23  A    between atoms: _51  and  _53
REMARK   24  A    between atoms: _53  and  _54
REMARK   25  A    between atoms: _53  and  _56
REMARK   26  A    between atoms: _56  and  _57
REMARK   27  A    between atoms: _62  and  _63
REMARK   28  A    between atoms: _65  and  _67
REMARK   29  A    between atoms: _67  and  _68
REMARK   30  A    between atoms: _70  and  _72
REMARK   31  A    between atoms: _72  and  _73
REMARK   32  A    between atoms: _72  and  _75
REMARK   33  A    between atoms: _75  and  _76
REMARK   34  A    between atoms: _76  and  _77
REMARK   35  A    between atoms: _80  and  _82
REMARK   36  A    between atoms: _82  and  _83
REMARK   37  A    between atoms: _82  and  _85
REMARK   38  A    between atoms: _88  and  _90
REMARK   39  A    between atoms: _90  and  _91
REMARK   40  A    between atoms: _90  and  _93
REMARK   41  A    between atoms: _93  and  _94
REMARK   42  A    between atoms: _94  and  _95
REMARK   43  A    between atoms: _100  and  _102
REMARK   44  A    between atoms: _102  and  _103
REMARK   45  A    between atoms: _102  and  _105
REMARK   46  A    between atoms: _105  and  _106
REMARK   47  A    between atoms: _109  and  _111
REMARK   48  A    between atoms: _111  and  _112
REMARK   49  A    between atoms: _115  and  _117
REMARK   50  A    between atoms: _117  and  _118
REMARK   51  A    between atoms: _121  and  _123
REMARK   52  A    between atoms: _123  and  _124
REMARK   53  A    between atoms: _123  and  _126
REMARK   54  A    between atoms: _129  and  _131
REMARK   55  A    between atoms: _131  and  _132
REMARK   56  A    between atoms: _135  and  _137
REMARK   57  A    between atoms: _137  and  _138
REMARK   58  A    between atoms: _137  and  _140
REMARK   59  A    between atoms: _143  and  _145
REMARK   60  A    between atoms: _145  and  _146
REMARK   61  A    between atoms: _145  and  _148
REMARK   62  A    between atoms: _148  and  _149
REMARK   63  A    between atoms: _149  and  _150
REMARK   64  A    between atoms: _150  and  _151
REMARK   65  A    between atoms: _151  and  _152
REMARK   66  A    between atoms: _156  and  _158
REMARK   67  A    between atoms: _158  and  _159
REMARK   68  A    between atoms: _158  and  _161
REMARK   69  A    between atoms: _161  and  _162
REMARK   70  A    between atoms: _165  and  _167
REMARK   71  A    between atoms: _167  and  _168
REMARK   72  A    between atoms: _167  and  _170
REMARK   73  A    between atoms: _173  and  _175
REMARK   74  A    between atoms: _175  and  _176
REMARK   75  A    between atoms: _175  and  _178
REMARK   76  A    between atoms: _178  and  _179
REMARK   77  A    between atoms: _179  and  _180
REMARK   78  A    between atoms: _183  and  _185
REMARK   79  A    between atoms: _185  and  _186
REMARK   80  A    between atoms: _185  and  _188
REMARK   81  A    between atoms: _188  and  _189
REMARK   82  A    between atoms: _194  and  _196
REMARK   83  A    between atoms: _196  and  _197
REMARK   84  A    between atoms: _196  and  _199
REMARK   85  A    between atoms: _202  and  _204
REMARK   86  A    between atoms: _204  and  _205
REMARK   87  A    between atoms: _204  and  _207
REMARK   88  A    between atoms: _210  and  _212
REMARK   89  A    between atoms: _212  and  _213
REMARK   90  A    between atoms: _212  and  _215
REMARK   91  A    between atoms: _215  and  _216
REMARK   92  A    between atoms: _216  and  _217
REMARK   93  A    between atoms: _217  and  _218
REMARK   94  A    between atoms: _218  and  _219
REMARK   95  A    between atoms: _223  and  _225
REMARK   96  A    between atoms: _225  and  _226
REMARK   97  A    between atoms: _225  and  _228
REMARK   98  A    between atoms: _228  and  _229
REMARK   99  A    between atoms: _235  and  _237
REMARK  100  A    between atoms: _237  and  _238
REMARK  101  A    between atoms: _237  and  _240
REMARK  102  A    between atoms: _240  and  _241
REMARK  103  A    between atoms: _246  and  _247
REMARK  104  A    between atoms: _249  and  _251
REMARK  105  A    between atoms: _251  and  _252
REMARK  106  A    between atoms: _251  and  _254
REMARK  107  A    between atoms: _254  and  _255
REMARK  108  A    between atoms: _258  and  _260
REMARK  109  A    between atoms: _260  and  _261
REMARK  110  A    between atoms: _260  and  _263
REMARK  111  A    between atoms: _263  and  _264
REMARK  112  A    between atoms: _270  and  _272
REMARK  113  A    between atoms: _272  and  _273
REMARK  114  A    between atoms: _272  and  _275
REMARK  115  A    between atoms: _275  and  _276
REMARK  116  A    between atoms: _279  and  _281
REMARK  117  A    between atoms: _281  and  _282
REMARK  118  A    between atoms: _281  and  _284
REMARK  119  A    between atoms: _284  and  _285
REMARK  120  A    between atoms: _285  and  _286
REMARK  121  A    between atoms: _289  and  _291
REMARK  122  A    between atoms: _291  and  _292
REMARK  123  A    between atoms: _291  and  _294
REMARK  124  A    between atoms: _294  and  _295
REMARK  125  A    between atoms: _300  and  _301
REMARK  126  A    between atoms: _303  and  _305
REMARK  127  A    between atoms: _305  and  _306
REMARK  128  A    between atoms: _305  and  _308
REMARK  129  A    between atoms: _310  and  _312
REMARK  130  A    between atoms: _312  and  _313
REMARK  131  A    between atoms: _312  and  _315
REMARK  132  A    between atoms: _315  and  _316
REMARK  133  A    between atoms: _318  and  _320
REMARK  134  A    between atoms: _320  and  _321
REMARK  135  A    between atoms: _323  and  _325
REMARK  136  A    between atoms: _325  and  _326
REMARK  137  A    between atoms: _328  and  _330
REMARK  138  A    between atoms: _330  and  _331
REMARK  139  A    between atoms: _330  and  _333
REMARK  140  A    between atoms: _333  and  _334
REMARK  141  A    between atoms: _334  and  _335
REMARK  142  A    between atoms: _338  and  _340
REMARK  143  A    between atoms: _340  and  _341
REMARK  144  A    between atoms: _340  and  _343
REMARK  145  A    between atoms: _343  and  _344
REMARK  146  A    between atoms: _347  and  _349
REMARK  147  A    between atoms: _349  and  _350
REMARK  148  A    between atoms: _349  and  _352
REMARK  149  A    between atoms: _352  and  _353
REMARK  150  A    between atoms: _359  and  _361
REMARK  151  A    between atoms: _361  and  _362
REMARK  152  A    between atoms: _361  and  _364
REMARK  153  A    between atoms: _364  and  _365
REMARK  154  A    between atoms: _368  and  _370
REMARK  155  A    between atoms: _370  and  _371
REMARK  156  A    between atoms: _370  and  _373
REMARK  157  A    between atoms: _373  and  _374
REMARK  158  A    between atoms: _379  and  _381
REMARK  159  A    between atoms: _381  and  _382
REMARK  160  A    between atoms: _381  and  _384
REMARK  161  A    between atoms: _384  and  _385
REMARK  162  A    between atoms: _388  and  _390
REMARK  163  A    between atoms: _390  and  _391
REMARK  164  A    between atoms: _390  and  _393
REMARK  165  A    between atoms: _393  and  _394
REMARK  166  A    between atoms: _394  and  _395
REMARK  167  A    between atoms: _395  and  _396
REMARK  168  A    between atoms: _396  and  _397
REMARK  169  A    between atoms: _402  and  _403
REMARK  170  A    between atoms: _408  and  _410
REMARK  171  A    between atoms: _410  and  _411
REMARK  172  A    between atoms: _410  and  _413
REMARK  173  A    between atoms: _413  and  _414
REMARK  174  A    between atoms: _414  and  _415
REMARK  175  A    between atoms: _418  and  _420
REMARK  176  A    between atoms: _420  and  _421
REMARK  177  A    between atoms: _420  and  _423
REMARK  178  A    between atoms: _423  and  _424
REMARK  179  A    between atoms: _429  and  _431
REMARK  180  A    between atoms: _431  and  _432
REMARK  181  A    between atoms: _431  and  _434
REMARK  182  A    between atoms: _434  and  _435
REMARK  183  A    between atoms: _438  and  _440
REMARK  184  A    between atoms: _440  and  _441
REMARK  185  A    between atoms: _440  and  _443
REMARK  186  A    between atoms: _443  and  _444
REMARK  187  A    between atoms: _447  and  _449
REMARK  188  A    between atoms: _449  and  _450
REMARK  189  A    between atoms: _449  and  _452
REMARK  190  A    between atoms: _452  and  _453
REMARK  191  A    between atoms: _456  and  _458
REMARK  192  A    between atoms: _458  and  _459
REMARK  193  A    between atoms: _458  and  _461
REMARK  194  A    between atoms: _461  and  _462
REMARK  195  A    between atoms: _465  and  _467
REMARK  196  A    between atoms: _467  and  _468
REMARK  197  A    between atoms: _467  and  _470
REMARK  198  A    between atoms: _470  and  _471
REMARK  199  A    between atoms: _471  and  _472
REMARK  200  A    between atoms: _472  and  _473
REMARK  201  A    between atoms: _473  and  _474
REMARK  202  A    between atoms: _478  and  _480
REMARK  203  A    between atoms: _480  and  _481
REMARK  204  A    between atoms: _480  and  _483
REMARK  205  A    between atoms: _483  and  _484
REMARK  206  A    between atoms: _487  and  _489
REMARK  207  A    between atoms: _489  and  _490
REMARK  208  A    between atoms: _489  and  _492
REMARK  209  A    between atoms: _492  and  _493
REMARK  210  A    between atoms: _495  and  _497
REMARK  211  A    between atoms: _497  and  _498
REMARK  212  A    between atoms: _497  and  _500
REMARK  213  A    between atoms: _500  and  _501
REMARK  214  A    between atoms: _504  and  _506
REMARK  215  A    between atoms: _506  and  _507
REMARK  216  A    between atoms: _506  and  _509
REMARK  217  A    between atoms: _509  and  _510
REMARK  218  A    between atoms: _516  and  _518
REMARK  219  A    between atoms: _518  and  _519
REMARK  220  A    between atoms: _521  and  _523
REMARK  221  A    between atoms: _523  and  _524
REMARK  222  A    between atoms: _523  and  _526
REMARK  223  A    between atoms: _526  and  _527
REMARK                            x       y       z     vdW  Elec       q    Type
REMARK                         _______ _______ _______ _____ _____    ______ ____
ROOT
ATOM      1  O   HOH     1      10.593   9.911  14.995  0.00  0.00    +0.000 OA
ENDROOT
TORSDOF 0
REMARK  Name = ../refined-set-2016/1nvq/1nvq_pocket.pdb
REMARK  223 active torsions:
REMARK  status: ('A' for Active; 'I' for Inactive)
REMARK    1  A    between atoms: _1  and  _3
REMARK    2  A    between atoms: _3  and  _4
REMARK    3  A    between atoms: _3  and  _6
REMARK    4  A    between atoms: _6  and  _7
REMARK    5  A    between atoms: _7  and  _8
REMARK    6  A    between atoms: _13  and  _15
REMARK    7  A    between atoms: _15  and  _16
REMARK    8  A    between atoms: _15  and  _18
REMARK    9  A    between atoms: _18  and  _19
REMARK   10  A    between atoms: _22  and  _24
REMARK   11  A    between atoms: _24  and  _25
REMARK   12  A    between atoms: _24  and  _27
REMARK   13  A    between atoms: _27  and  _28
REMARK   14  A    between atoms: _31  and  _33
REMARK   15  A    between atoms: _33  and  _34
REMARK   16  A    between atoms: _36  and  _38
REMARK   17  A    between atoms: _38  and  _39
REMARK   18  A    between atoms: _38  and  _41
REMARK   19  A    between atoms: _41  and  _42
REMARK   20  A    between atoms: _42  and  _43
REMARK   21  A    between atoms: _46  and  _48
REMARK   22  A    between atoms: _48  and  _49
REMARK   23  A    between atoms: _51  and  _53
REMARK   24  A    between atoms: _53  and  _54
REMARK   25  A    between atoms: _53  and  _56
REMARK   26  A    between atoms: _56  and  _57
REMARK   27  A    between atoms: _62  and  _63
REMARK   28  A    between atoms: _65  and  _67
REMARK   29  A    between atoms: _67  and  _68
REMARK   30  A    between atoms: _70  and  _72
REMARK   31  A    between atoms: _72  and  _73
REMARK   32  A    between atoms: _72  and  _75
REMARK   33  A    between atoms: _75  and  _76
REMARK   34  A    between atoms: _76  and  _77
REMARK   35  A    between atoms: _80  and  _82
REMARK   36  A    between atoms: _82  and  _83
REMARK   37  A    between atoms: _82  and  _85
REMARK   38  A    between atoms: _88  and  _90
REMARK   39  A    between atoms: _90  and  _91
REMARK   40  A    between atoms: _90  and  _93
REMARK   41  A    between atoms: _93  and  _94
REMARK   42  A    between atoms: _94  and  _95
REMARK   43  A    between atoms: _100  and  _102
REMARK   44  A    between atoms: _102  and  _103
REMARK   45  A    between atoms: _102  and  _105
REMARK   46  A    between atoms: _105  and  _106
REMARK   47  A    between atoms: _109  and  _111
REMARK   48  A    between atoms: _111  and  _112
REMARK   49  A    between atoms: _115  and  _117
REMARK   50  A    between atoms: _117  and  _118
REMARK   51  A    between atoms: _121  and  _123
REMARK   52  A    between atoms: _123  and  _124
REMARK   53  A    between atoms: _123  and  _126
REMARK   54  A    between atoms: _129  and  _131
REMARK   55  A    between atoms: _131  and  _132
REMARK   56  A    between atoms: _135  and  _137
REMARK   57  A    between atoms: _137  and  _138
REMARK   58  A    between atoms: _137  and  _140
REMARK   59  A    between atoms: _143  and  _145
REMARK   60  A    between atoms: _145  and  _146
REMARK   61  A    between atoms: _145  and  _148
REMARK   62  A    between atoms: _148  and  _149
REMARK   63  A    between atoms: _149  and  _150
REMARK   64  A    between atoms: _150  and  _151
REMARK   65  A    between atoms: _151  and  _152
REMARK   66  A    between atoms: _156  and  _158
REMARK   67  A    between atoms: _158  and  _159
REMARK   68  A    between atoms: _158  and  _161
REMARK   69  A    between atoms: _161  and  _162
REMARK   70  A    between atoms: _165  and  _167
REMARK   71  A    between atoms: _167  and  _168
REMARK   72  A    between atoms: _167  and  _170
REMARK   73  A    between atoms: _173  and  _175
REMARK   74  A    between atoms: _175  and  _176
REMARK   75  A    between atoms: _175  and  _178
REMARK   76  A    between atoms: _178  and  _179
REMARK   77  A    between atoms: _179  and  _180
REMARK   78  A    between atoms: _183  and  _185
REMARK   79  A    between atoms: _185  and  _186
REMARK   80  A    between atoms: _185  and  _188
REMARK   81  A    between atoms: _188  and  _189
REMARK   82  A    between atoms: _194  and  _196
REMARK   83  A    between atoms: _196  and  _197
REMARK   84  A    between atoms: _196  and  _199
REMARK   85  A    between atoms: _202  and  _204
REMARK   86  A    between atoms: _204  and  _205
REMARK   87  A    between atoms: _204  and  _207
REMARK   88  A    between atoms: _210  and  _212
REMARK   89  A    between atoms: _212  and  _213
REMARK   90  A    between atoms: _212  and  _215
REMARK   91  A    between atoms: _215  and  _216
REMARK   92  A    between atoms: _216  and  _217
REMARK   93  A    between atoms: _217  and  _218
REMARK   94  A    between atoms: _218  and  _219
REMARK   95  A    between atoms: _223  and  _225
REMARK   96  A    between atoms: _225  and  _226
REMARK   97  A    between atoms: _225  and  _228
REMARK   98  A    between atoms: _228  and  _229
REMARK   99  A    between atoms: _235  and  _237
REMARK  100  A    between atoms: _237  and  _238
REMARK  101  A    between atoms: _237  and  _240
REMARK  102  A    between atoms: _240  and  _241
REMARK  103  A    between atoms: _246  and  _247
REMARK  104  A    between atoms: _249  and  _251
REMARK  105  A    between atoms: _251  and  _252
REMARK  106  A    between atoms: _251  and  _254
REMARK  107  A    between atoms: _254  and  _255
REMARK  108  A    between atoms: _258  and  _260
REMARK  109  A    between atoms: _260  and  _261
REMARK  110  A    between atoms: _260  and  _263
REMARK  111  A    between atoms: _263  and  _264
REMARK  112  A    between atoms: _270  and  _272
REMARK  113  A    between atoms: _272  and  _273
REMARK  114  A    between atoms: _272  and  _275
REMARK  115  A    between atoms: _275  and  _276
REMARK  116  A    between atoms: _279  and  _281
REMARK  117  A    between atoms: _281  and  _282
REMARK  118  A    between atoms: _281  and  _284
REMARK  119  A    between atoms: _284  and  _285
REMARK  120  A    between atoms: _285  and  _286
REMARK  121  A    between atoms: _289  and  _291
REMARK  122  A    between atoms: _291  and  _292
REMARK  123  A    between atoms: _291  and  _294
REMARK  124  A    between atoms: _294  and  _295
REMARK  125  A    between atoms: _300  and  _301
REMARK  126  A    between atoms: _303  and  _305
REMARK  127  A    between atoms: _305  and  _306
REMARK  128  A    between atoms: _305  and  _308
REMARK  129  A    between atoms: _310  and  _312
REMARK  130  A    between atoms: _312  and  _313
REMARK  131  A    between atoms: _312  and  _315
REMARK  132  A    between atoms: _315  and  _316
REMARK  133  A    between atoms: _318  and  _320
REMARK  134  A    between atoms: _320  and  _321
REMARK  135  A    between atoms: _323  and  _325
REMARK  136  A    between atoms: _325  and  _326
REMARK  137  A    between atoms: _328  and  _330
REMARK  138  A    between atoms: _330  and  _331
REMARK  139  A    between atoms: _330  and  _333
REMARK  140  A    between atoms: _333  and  _334
REMARK  141  A    between atoms: _334  and  _335
REMARK  142  A    between atoms: _338  and  _340
REMARK  143  A    between atoms: _340  and  _341
REMARK  144  A    between atoms: _340  and  _343
REMARK  145  A    between atoms: _343  and  _344
REMARK  146  A    between atoms: _347  and  _349
REMARK  147  A    between atoms: _349  and  _350
REMARK  148  A    between atoms: _349  and  _352
REMARK  149  A    between atoms: _352  and  _353
REMARK  150  A    between atoms: _359  and  _361
REMARK  151  A    between atoms: _361  and  _362
REMARK  152  A    between atoms: _361  and  _364
REMARK  153  A    between atoms: _364  and  _365
REMARK  154  A    between atoms: _368  and  _370
REMARK  155  A    between atoms: _370  and  _371
REMARK  156  A    between atoms: _370  and  _373
REMARK  157  A    between atoms: _373  and  _374
REMARK  158  A    between atoms: _379  and  _381
REMARK  159  A    between atoms: _381  and  _382
REMARK  160  A    between atoms: _381  and  _384
REMARK  161  A    between atoms: _384  and  _385
REMARK  162  A    between atoms: _388  and  _390
REMARK  163  A    between atoms: _390  and  _391
REMARK  164  A    between atoms: _390  and  _393
REMARK  165  A    between atoms: _393  and  _394
REMARK  166  A    between atoms: _394  and  _395
REMARK  167  A    between atoms: _395  and  _396
REMARK  168  A    between atoms: _396  and  _397
REMARK  169  A    between atoms: _402  and  _403
REMARK  170  A    between atoms: _408  and  _410
REMARK  171  A    between atoms: _410  and  _411
REMARK  172  A    between atoms: _410  and  _413
REMARK  173  A    between atoms: _413  and  _414
REMARK  174  A    between atoms: _414  and  _415
REMARK  175  A    between atoms: _418  and  _420
REMARK  176  A    between atoms: _420  and  _421
REMARK  177  A    between atoms: _420  and  _423
REMARK  178  A    between atoms: _423  and  _424
REMARK  179  A    between atoms: _429  and  _431
REMARK  180  A    between atoms: _431  and  _432
REMARK  181  A    between atoms: _431  and  _434
REMARK  182  A    between atoms: _434  and  _435
REMARK  183  A    between atoms: _438  and  _440
REMARK  184  A    between atoms: _440  and  _441
REMARK  185  A    between atoms: _440  and  _443
REMARK  186  A    between atoms: _443  and  _444
REMARK  187  A    between atoms: _447  and  _449
REMARK  188  A    between atoms: _449  and  _450
REMARK  189  A    between atoms: _449  and  _452
REMARK  190  A    between atoms: _452  and  _453
REMARK  191  A    between atoms: _456  and  _458
REMARK  192  A    between atoms: _458  and  _459
REMARK  193  A    between atoms: _458  and  _461
REMARK  194  A    between atoms: _461  and  _462
REMARK  195  A    between atoms: _465  and  _467
REMARK  196  A    between atoms: _467  and  _468
REMARK  197  A    between atoms: _467  and  _470
REMARK  198  A    between atoms: _470  and  _471
REMARK  199  A    between atoms: _471  and  _472
REMARK  200  A    between atoms: _472  and  _473
REMARK  201  A    between atoms: _473  and  _474
REMARK  202  A    between atoms: _478  and  _480
REMARK  203  A    between atoms: _480  and  _481
REMARK  204  A    between atoms: _480  and  _483
REMARK  205  A    between atoms: _483  and  _484
REMARK  206  A    between atoms: _487  and  _489
REMARK  207  A    between atoms: _489  and  _490
REMARK  208  A    between atoms: _489  and  _492
REMARK  209  A    between atoms: _492  and  _493
REMARK  210  A    between atoms: _495  and  _497
REMARK  211  A    between atoms: _497  and  _498
REMARK  212  A    between atoms: _497  and  _500
REMARK  213  A    between atoms: _500  and  _501
REMARK  214  A    between atoms: _504  and  _506
REMARK  215  A    between atoms: _506  and  _507
REMARK  216  A    between atoms: _506  and  _509
REMARK  217  A    between atoms: _509  and  _510
REMARK  218  A    between atoms: _516  and  _518
REMARK  219  A    between atoms: _518  and  _519
REMARK  220  A    between atoms: _521  and  _523
REMARK  221  A    between atoms: _523  and  _524
REMARK  222  A    between atoms: _523  and  _526
REMARK  223  A    between atoms: _526  and  _527
REMARK                            x       y       z     vdW  Elec       q    Type
REMARK                         _______ _______ _______ _____ _____    ______ ____
ROOT
ATOM      1  O   HOH     1       6.244   3.726  11.713  0.00  0.00    +0.000 OA
ENDROOT
TORSDOF 0
REMARK  Name = ../refined-set-2016/1nvq/1nvq_pocket.pdb
REMARK  223 active torsions:
REMARK  status: ('A' for Active; 'I' for Inactive)
REMARK    1  A    between atoms: _1  and  _3
REMARK    2  A    between atoms: _3  and  _4
REMARK    3  A    between atoms: _3  and  _6
REMARK    4  A    between atoms: _6  and  _7
REMARK    5  A    between atoms: _7  and  _8
REMARK    6  A    between atoms: _13  and  _15
REMARK    7  A    between atoms: _15  and  _16
REMARK    8  A    between atoms: _15  and  _18
REMARK    9  A    between atoms: _18  and  _19
REMARK   10  A    between atoms: _22  and  _24
REMARK   11  A    between atoms: _24  and  _25
REMARK   12  A    between atoms: _24  and  _27
REMARK   13  A    between atoms: _27  and  _28
REMARK   14  A    between atoms: _31  and  _33
REMARK   15  A    between atoms: _33  and  _34
REMARK   16  A    between atoms: _36  and  _38
REMARK   17  A    between atoms: _38  and  _39
REMARK   18  A    between atoms: _38  and  _41
REMARK   19  A    between atoms: _41  and  _42
REMARK   20  A    between atoms: _42  and  _43
REMARK   21  A    between atoms: _46  and  _48
REMARK   22  A    between atoms: _48  and  _49
REMARK   23  A    between atoms: _51  and  _53
REMARK   24  A    between atoms: _53  and  _54
REMARK   25  A    between atoms: _53  and  _56
REMARK   26  A    between atoms: _56  and  _57
REMARK   27  A    between atoms: _62  and  _63
REMARK   28  A    between atoms: _65  and  _67
REMARK   29  A    between atoms: _67  and  _68
REMARK   30  A    between atoms: _70  and  _72
REMARK   31  A    between atoms: _72  and  _73
REMARK   32  A    between atoms: _72  and  _75
REMARK   33  A    between atoms: _75  and  _76
REMARK   34  A    between atoms: _76  and  _77
REMARK   35  A    between atoms: _80  and  _82
REMARK   36  A    between atoms: _82  and  _83
REMARK   37  A    between atoms: _82  and  _85
REMARK   38  A    between atoms: _88  and  _90
REMARK   39  A    between atoms: _90  and  _91
REMARK   40  A    between atoms: _90  and  _93
REMARK   41  A    between atoms: _93  and  _94
REMARK   42  A    between atoms: _94  and  _95
REMARK   43  A    between atoms: _100  and  _102
REMARK   44  A    between atoms: _102  and  _103
REMARK   45  A    between atoms: _102  and  _105
REMARK   46  A    between atoms: _105  and  _106
REMARK   47  A    between atoms: _109  and  _111
REMARK   48  A    between atoms: _111  and  _112
REMARK   49  A    between atoms: _115  and  _117
REMARK   50  A    between atoms: _117  and  _118
REMARK   51  A    between atoms: _121  and  _123
REMARK   52  A    between atoms: _123  and  _124
REMARK   53  A    between atoms: _123  and  _126
REMARK   54  A    between atoms: _129  and  _131
REMARK   55  A    between atoms: _131  and  _132
REMARK   56  A    between atoms: _135  and  _137
REMARK   57  A    between atoms: _137  and  _138
REMARK   58  A    between atoms: _137  and  _140
REMARK   59  A    between atoms: _143  and  _145
REMARK   60  A    between atoms: _145  and  _146
REMARK   61  A    between atoms: _145  and  _148
REMARK   62  A    between atoms: _148  and  _149
REMARK   63  A    between atoms: _149  and  _150
REMARK   64  A    between atoms: _150  and  _151
REMARK   65  A    between atoms: _151  and  _152
REMARK   66  A    between atoms: _156  and  _158
REMARK   67  A    between atoms: _158  and  _159
REMARK   68  A    between atoms: _158  and  _161
REMARK   69  A    between atoms: _161  and  _162
REMARK   70  A    between atoms: _165  and  _167
REMARK   71  A    between atoms: _167  and  _168
REMARK   72  A    between atoms: _167  and  _170
REMARK   73  A    between atoms: _173  and  _175
REMARK   74  A    between atoms: _175  and  _176
REMARK   75  A    between atoms: _175  and  _178
REMARK   76  A    between atoms: _178  and  _179
REMARK   77  A    between atoms: _179  and  _180
REMARK   78  A    between atoms: _183  and  _185
REMARK   79  A    between atoms: _185  and  _186
REMARK   80  A    between atoms: _185  and  _188
REMARK   81  A    between atoms: _188  and  _189
REMARK   82  A    between atoms: _194  and  _196
REMARK   83  A    between atoms: _196  and  _197
REMARK   84  A    between atoms: _196  and  _199
REMARK   85  A    between atoms: _202  and  _204
REMARK   86  A    between atoms: _204  and  _205
REMARK   87  A    between atoms: _204  and  _207
REMARK   88  A    between atoms: _210  and  _212
REMARK   89  A    between atoms: _212  and  _213
REMARK   90  A    between atoms: _212  and  _215
REMARK   91  A    between atoms: _215  and  _216
REMARK   92  A    between atoms: _216  and  _217
REMARK   93  A    between atoms: _217  and  _218
REMARK   94  A    between atoms: _218  and  _219
REMARK   95  A    between atoms: _223  and  _225
REMARK   96  A    between atoms: _225  and  _226
REMARK   97  A    between atoms: _225  and  _228
REMARK   98  A    between atoms: _228  and  _229
REMARK   99  A    between atoms: _235  and  _237
REMARK  100  A    between atoms: _237  and  _238
REMARK  101  A    between atoms: _237  and  _240
REMARK  102  A    between atoms: _240  and  _241
REMARK  103  A    between atoms: _246  and  _247
REMARK  104  A    between atoms: _249  and  _251
REMARK  105  A    between atoms: _251  and  _252
REMARK  106  A    between atoms: _251  and  _254
REMARK  107  A    between atoms: _254  and  _255
REMARK  108  A    between atoms: _258  and  _260
REMARK  109  A    between atoms: _260  and  _261
REMARK  110  A    between atoms: _260  and  _263
REMARK  111  A    between atoms: _263  and  _264
REMARK  112  A    between atoms: _270  and  _272
REMARK  113  A    between atoms: _272  and  _273
REMARK  114  A    between atoms: _272  and  _275
REMARK  115  A    between atoms: _275  and  _276
REMARK  116  A    between atoms: _279  and  _281
REMARK  117  A    between atoms: _281  and  _282
REMARK  118  A    between atoms: _281  and  _284
REMARK  119  A    between atoms: _284  and  _285
REMARK  120  A    between atoms: _285  and  _286
REMARK  121  A    between atoms: _289  and  _291
REMARK  122  A    between atoms: _291  and  _292
REMARK  123  A    between atoms: _291  and  _294
REMARK  124  A    between atoms: _294  and  _295
REMARK  125  A    between atoms: _300  and  _301
REMARK  126  A    between atoms: _303  and  _305
REMARK  127  A    between atoms: _305  and  _306
REMARK  128  A    between atoms: _305  and  _308
REMARK  129  A    between atoms: _310  and  _312
REMARK  130  A    between atoms: _312  and  _313
REMARK  131  A    between atoms: _312  and  _315
REMARK  132  A    between atoms: _315  and  _316
REMARK  133  A    between atoms: _318  and  _320
REMARK  134  A    between atoms: _320  and  _321
REMARK  135  A    between atoms: _323  and  _325
REMARK  136  A    between atoms: _325  and  _326
REMARK  137  A    between atoms: _328  and  _330
REMARK  138  A    between atoms: _330  and  _331
REMARK  139  A    between atoms: _330  and  _333
REMARK  140  A    between atoms: _333  and  _334
REMARK  141  A    between atoms: _334  and  _335
REMARK  142  A    between atoms: _338  and  _340
REMARK  143  A    between atoms: _340  and  _341
REMARK  144  A    between atoms: _340  and  _343
REMARK  145  A    between atoms: _343  and  _344
REMARK  146  A    between atoms: _347  and  _349
REMARK  147  A    between atoms: _349  and  _350
REMARK  148  A    between atoms: _349  and  _352
REMARK  149  A    between atoms: _352  and  _353
REMARK  150  A    between atoms: _359  and  _361
REMARK  151  A    between atoms: _361  and  _362
REMARK  152  A    between atoms: _361  and  _364
REMARK  153  A    between atoms: _364  and  _365
REMARK  154  A    between atoms: _368  and  _370
REMARK  155  A    between atoms: _370  and  _371
REMARK  156  A    between atoms: _370  and  _373
REMARK  157  A    between atoms: _373  and  _374
REMARK  158  A    between atoms: _379  and  _381
REMARK  159  A    between atoms: _381  and  _382
REMARK  160  A    between atoms: _381  and  _384
REMARK  161  A    between atoms: _384  and  _385
REMARK  162  A    between atoms: _388  and  _390
REMARK  163  A    between atoms: _390  and  _391
REMARK  164  A    between atoms: _390  and  _393
REMARK  165  A    between atoms: _393  and  _394
REMARK  166  A    between atoms: _394  and  _395
REMARK  167  A    between atoms: _395  and  _396
REMARK  168  A    between atoms: _396  and  _397
REMARK  169  A    between atoms: _402  and  _403
REMARK  170  A    between atoms: _408  and  _410
REMARK  171  A    between atoms: _410  and  _411
REMARK  172  A    between atoms: _410  and  _413
REMARK  173  A    between atoms: _413  and  _414
REMARK  174  A    between atoms: _414  and  _415
REMARK  175  A    between atoms: _418  and  _420
REMARK  176  A    between atoms: _420  and  _421
REMARK  177  A    between atoms: _420  and  _423
REMARK  178  A    between atoms: _423  and  _424
REMARK  179  A    between atoms: _429  and  _431
REMARK  180  A    between atoms: _431  and  _432
REMARK  181  A    between atoms: _431  and  _434
REMARK  182  A    between atoms: _434  and  _435
REMARK  183  A    between atoms: _438  and  _440
REMARK  184  A    between atoms: _440  and  _441
REMARK  185  A    between atoms: _440  and  _443
REMARK  186  A    between atoms: _443  and  _444
REMARK  187  A    between atoms: _447  and  _449
REMARK  188  A    between atoms: _449  and  _450
REMARK  189  A    between atoms: _449  and  _452
REMARK  190  A    between atoms: _452  and  _453
REMARK  191  A    between atoms: _456  and  _458
REMARK  192  A    between atoms: _458  and  _459
REMARK  193  A    between atoms: _458  and  _461
REMARK  194  A    between atoms: _461  and  _462
REMARK  195  A    between atoms: _465  and  _467
REMARK  196  A    between atoms: _467  and  _468
REMARK  197  A    between atoms: _467  and  _470
REMARK  198  A    between atoms: _470  and  _471
REMARK  199  A    between atoms: _471  and  _472
REMARK  200  A    between atoms: _472  and  _473
REMARK  201  A    between atoms: _473  and  _474
REMARK  202  A    between atoms: _478  and  _480
REMARK  203  A    between atoms: _480  and  _481
REMARK  204  A    between atoms: _480  and  _483
REMARK  205  A    between atoms: _483  and  _484
REMARK  206  A    between atoms: _487  and  _489
REMARK  207  A    between atoms: _489  and  _490
REMARK  208  A    between atoms: _489  and  _492
REMARK  209  A    between atoms: _492  and  _493
REMARK  210  A    between atoms: _495  and  _497
REMARK  211  A    between atoms: _497  and  _498
REMARK  212  A    between atoms: _497  and  _500
REMARK  213  A    between atoms: _500  and  _501
REMARK  214  A    between atoms: _504  and  _506
REMARK  215  A    between atoms: _506  and  _507
REMARK  216  A    between atoms: _506  and  _509
REMARK  217  A    between atoms: _509  and  _510
REMARK  218  A    between atoms: _516  and  _518
REMARK  219  A    between atoms: _518  and  _519
REMARK  220  A    between atoms: _521  and  _523
REMARK  221  A    between atoms: _523  and  _524
REMARK  222  A    between atoms: _523  and  _526
REMARK  223  A    between atoms: _526  and  _527
REMARK                            x       y       z     vdW  Elec       q    Type
REMARK                         _______ _______ _______ _____ _____    ______ ____
ROOT
ATOM      1  O   HOH     1       1.203   1.487   6.478  0.00  0.00    +0.000 OA
ENDROOT
TORSDOF 0
REMARK  Name = ../refined-set-2016/1nvq/1nvq_pocket.pdb
REMARK  223 active torsions:
REMARK  status: ('A' for Active; 'I' for Inactive)
REMARK    1  A    between atoms: _1  and  _3
REMARK    2  A    between atoms: _3  and  _4
REMARK    3  A    between atoms: _3  and  _6
REMARK    4  A    between atoms: _6  and  _7
REMARK    5  A    between atoms: _7  and  _8
REMARK    6  A    between atoms: _13  and  _15
REMARK    7  A    between atoms: _15  and  _16
REMARK    8  A    between atoms: _15  and  _18
REMARK    9  A    between atoms: _18  and  _19
REMARK   10  A    between atoms: _22  and  _24
REMARK   11  A    between atoms: _24  and  _25
REMARK   12  A    between atoms: _24  and  _27
REMARK   13  A    between atoms: _27  and  _28
REMARK   14  A    between atoms: _31  and  _33
REMARK   15  A    between atoms: _33  and  _34
REMARK   16  A    between atoms: _36  and  _38
REMARK   17  A    between atoms: _38  and  _39
REMARK   18  A    between atoms: _38  and  _41
REMARK   19  A    between atoms: _41  and  _42
REMARK   20  A    between atoms: _42  and  _43
REMARK   21  A    between atoms: _46  and  _48
REMARK   22  A    between atoms: _48  and  _49
REMARK   23  A    between atoms: _51  and  _53
REMARK   24  A    between atoms: _53  and  _54
REMARK   25  A    between atoms: _53  and  _56
REMARK   26  A    between atoms: _56  and  _57
REMARK   27  A    between atoms: _62  and  _63
REMARK   28  A    between atoms: _65  and  _67
REMARK   29  A    between atoms: _67  and  _68
REMARK   30  A    between atoms: _70  and  _72
REMARK   31  A    between atoms: _72  and  _73
REMARK   32  A    between atoms: _72  and  _75
REMARK   33  A    between atoms: _75  and  _76
REMARK   34  A    between atoms: _76  and  _77
REMARK   35  A    between atoms: _80  and  _82
REMARK   36  A    between atoms: _82  and  _83
REMARK   37  A    between atoms: _82  and  _85
REMARK   38  A    between atoms: _88  and  _90
REMARK   39  A    between atoms: _90  and  _91
REMARK   40  A    between atoms: _90  and  _93
REMARK   41  A    between atoms: _93  and  _94
REMARK   42  A    between atoms: _94  and  _95
REMARK   43  A    between atoms: _100  and  _102
REMARK   44  A    between atoms: _102  and  _103
REMARK   45  A    between atoms: _102  and  _105
REMARK   46  A    between atoms: _105  and  _106
REMARK   47  A    between atoms: _109  and  _111
REMARK   48  A    between atoms: _111  and  _112
REMARK   49  A    between atoms: _115  and  _117
REMARK   50  A    between atoms: _117  and  _118
REMARK   51  A    between atoms: _121  and  _123
REMARK   52  A    between atoms: _123  and  _124
REMARK   53  A    between atoms: _123  and  _126
REMARK   54  A    between atoms: _129  and  _131
REMARK   55  A    between atoms: _131  and  _132
REMARK   56  A    between atoms: _135  and  _137
REMARK   57  A    between atoms: _137  and  _138
REMARK   58  A    between atoms: _137  and  _140
REMARK   59  A    between atoms: _143  and  _145
REMARK   60  A    between atoms: _145  and  _146
REMARK   61  A    between atoms: _145  and  _148
REMARK   62  A    between atoms: _148  and  _149
REMARK   63  A    between atoms: _149  and  _150
REMARK   64  A    between atoms: _150  and  _151
REMARK   65  A    between atoms: _151  and  _152
REMARK   66  A    between atoms: _156  and  _158
REMARK   67  A    between atoms: _158  and  _159
REMARK   68  A    between atoms: _158  and  _161
REMARK   69  A    between atoms: _161  and  _162
REMARK   70  A    between atoms: _165  and  _167
REMARK   71  A    between atoms: _167  and  _168
REMARK   72  A    between atoms: _167  and  _170
REMARK   73  A    between atoms: _173  and  _175
REMARK   74  A    between atoms: _175  and  _176
REMARK   75  A    between atoms: _175  and  _178
REMARK   76  A    between atoms: _178  and  _179
REMARK   77  A    between atoms: _179  and  _180
REMARK   78  A    between atoms: _183  and  _185
REMARK   79  A    between atoms: _185  and  _186
REMARK   80  A    between atoms: _185  and  _188
REMARK   81  A    between atoms: _188  and  _189
REMARK   82  A    between atoms: _194  and  _196
REMARK   83  A    between atoms: _196  and  _197
REMARK   84  A    between atoms: _196  and  _199
REMARK   85  A    between atoms: _202  and  _204
REMARK   86  A    between atoms: _204  and  _205
REMARK   87  A    between atoms: _204  and  _207
REMARK   88  A    between atoms: _210  and  _212
REMARK   89  A    between atoms: _212  and  _213
REMARK   90  A    between atoms: _212  and  _215
REMARK   91  A    between atoms: _215  and  _216
REMARK   92  A    between atoms: _216  and  _217
REMARK   93  A    between atoms: _217  and  _218
REMARK   94  A    between atoms: _218  and  _219
REMARK   95  A    between atoms: _223  and  _225
REMARK   96  A    between atoms: _225  and  _226
REMARK   97  A    between atoms: _225  and  _228
REMARK   98  A    between atoms: _228  and  _229
REMARK   99  A    between atoms: _235  and  _237
REMARK  100  A    between atoms: _237  and  _238
REMARK  101  A    between atoms: _237  and  _240
REMARK  102  A    between atoms: _240  and  _241
REMARK  103  A    between atoms: _246  and  _247
REMARK  104  A    between atoms: _249  and  _251
REMARK  105  A    between atoms: _251  and  _252
REMARK  106  A    between atoms: _251  and  _254
REMARK  107  A    between atoms: _254  and  _255
REMARK  108  A    between atoms: _258  and  _260
REMARK  109  A    between atoms: _260  and  _261
REMARK  110  A    between atoms: _260  and  _263
REMARK  111  A    between atoms: _263  and  _264
REMARK  112  A    between atoms: _270  and  _272
REMARK  113  A    between atoms: _272  and  _273
REMARK  114  A    between atoms: _272  and  _275
REMARK  115  A    between atoms: _275  and  _276
REMARK  116  A    between atoms: _279  and  _281
REMARK  117  A    between atoms: _281  and  _282
REMARK  118  A    between atoms: _281  and  _284
REMARK  119  A    between atoms: _284  and  _285
REMARK  120  A    between atoms: _285  and  _286
REMARK  121  A    between atoms: _289  and  _291
REMARK  122  A    between atoms: _291  and  _292
REMARK  123  A    between atoms: _291  and  _294
REMARK  124  A    between atoms: _294  and  _295
REMARK  125  A    between atoms: _300  and  _301
REMARK  126  A    between atoms: _303  and  _305
REMARK  127  A    between atoms: _305  and  _306
REMARK  128  A    between atoms: _305  and  _308
REMARK  129  A    between atoms: _310  and  _312
REMARK  130  A    between atoms: _312  and  _313
REMARK  131  A    between atoms: _312  and  _315
REMARK  132  A    between atoms: _315  and  _316
REMARK  133  A    between atoms: _318  and  _320
REMARK  134  A    between atoms: _320  and  _321
REMARK  135  A    between atoms: _323  and  _325
REMARK  136  A    between atoms: _325  and  _326
REMARK  137  A    between atoms: _328  and  _330
REMARK  138  A    between atoms: _330  and  _331
REMARK  139  A    between atoms: _330  and  _333
REMARK  140  A    between atoms: _333  and  _334
REMARK  141  A    between atoms: _334  and  _335
REMARK  142  A    between atoms: _338  and  _340
REMARK  143  A    between atoms: _340  and  _341
REMARK  144  A    between atoms: _340  and  _343
REMARK  145  A    between atoms: _343  and  _344
REMARK  146  A    between atoms: _347  and  _349
REMARK  147  A    between atoms: _349  and  _350
REMARK  148  A    between atoms: _349  and  _352
REMARK  149  A    between atoms: _352  and  _353
REMARK  150  A    between atoms: _359  and  _361
REMARK  151  A    between atoms: _361  and  _362
REMARK  152  A    between atoms: _361  and  _364
REMARK  153  A    between atoms: _364  and  _365
REMARK  154  A    between atoms: _368  and  _370
REMARK  155  A    between atoms: _370  and  _371
REMARK  156  A    between atoms: _370  and  _373
REMARK  157  A    between atoms: _373  and  _374
REMARK  158  A    between atoms: _379  and  _381
REMARK  159  A    between atoms: _381  and  _382
REMARK  160  A    between atoms: _381  and  _384
REMARK  161  A    between atoms: _384  and  _385
REMARK  162  A    between atoms: _388  and  _390
REMARK  163  A    between atoms: _390  and  _391
REMARK  164  A    between atoms: _390  and  _393
REMARK  165  A    between atoms: _393  and  _394
REMARK  166  A    between atoms: _394  and  _395
REMARK  167  A    between atoms: _395  and  _396
REMARK  168  A    between atoms: _396  and  _397
REMARK  169  A    between atoms: _402  and  _403
REMARK  170  A    between atoms: _408  and  _410
REMARK  171  A    between atoms: _410  and  _411
REMARK  172  A    between atoms: _410  and  _413
REMARK  173  A    between atoms: _413  and  _414
REMARK  174  A    between atoms: _414  and  _415
REMARK  175  A    between atoms: _418  and  _420
REMARK  176  A    between atoms: _420  and  _421
REMARK  177  A    between atoms: _420  and  _423
REMARK  178  A    between atoms: _423  and  _424
REMARK  179  A    between atoms: _429  and  _431
REMARK  180  A    between atoms: _431  and  _432
REMARK  181  A    between atoms: _431  and  _434
REMARK  182  A    between atoms: _434  and  _435
REMARK  183  A    between atoms: _438  and  _440
REMARK  184  A    between atoms: _440  and  _441
REMARK  185  A    between atoms: _440  and  _443
REMARK  186  A    between atoms: _443  and  _444
REMARK  187  A    between atoms: _447  and  _449
REMARK  188  A    between atoms: _449  and  _450
REMARK  189  A    between atoms: _449  and  _452
REMARK  190  A    between atoms: _452  and  _453
REMARK  191  A    between atoms: _456  and  _458
REMARK  192  A    between atoms: _458  and  _459
REMARK  193  A    between atoms: _458  and  _461
REMARK  194  A    between atoms: _461  and  _462
REMARK  195  A    between atoms: _465  and  _467
REMARK  196  A    between atoms: _467  and  _468
REMARK  197  A    between atoms: _467  and  _470
REMARK  198  A    between atoms: _470  and  _471
REMARK  199  A    between atoms: _471  and  _472
REMARK  200  A    between atoms: _472  and  _473
REMARK  201  A    between atoms: _473  and  _474
REMARK  202  A    between atoms: _478  and  _480
REMARK  203  A    between atoms: _480  and  _481
REMARK  204  A    between atoms: _480  and  _483
REMARK  205  A    between atoms: _483  and  _484
REMARK  206  A    between atoms: _487  and  _489
REMARK  207  A    between atoms: _489  and  _490
REMARK  208  A    between atoms: _489  and  _492
REMARK  209  A    between atoms: _492  and  _493
REMARK  210  A    between atoms: _495  and  _497
REMARK  211  A    between atoms: _497  and  _498
REMARK  212  A    between atoms: _497  and  _500
REMARK  213  A    between atoms: _500  and  _501
REMARK  214  A    between atoms: _504  and  _506
REMARK  215  A    between atoms: _506  and  _507
REMARK  216  A    between atoms: _506  and  _509
REMARK  217  A    between atoms: _509  and  _510
REMARK  218  A    between atoms: _516  and  _518
REMARK  219  A    between atoms: _518  and  _519
REMARK  220  A    between atoms: _521  and  _523
REMARK  221  A    between atoms: _523  and  _524
REMARK  222  A    between atoms: _523  and  _526
REMARK  223  A    between atoms: _526  and  _527
REMARK                            x       y       z     vdW  Elec       q    Type
REMARK                         _______ _______ _______ _____ _____    ______ ____
ROOT
ATOM      1  O   HOH     1       7.983   3.437   8.580  0.00  0.00    +0.000 OA
ENDROOT
TORSDOF 0
REMARK  Name = ../refined-set-2016/1nvq/1nvq_pocket.pdb
REMARK  223 active torsions:
REMARK  status: ('A' for Active; 'I' for Inactive)
REMARK    1  A    between atoms: _1  and  _3
REMARK    2  A    between atoms: _3  and  _4
REMARK    3  A    between atoms: _3  and  _6
REMARK    4  A    between atoms: _6  and  _7
REMARK    5  A    between atoms: _7  and  _8
REMARK    6  A    between atoms: _13  and  _15
REMARK    7  A    between atoms: _15  and  _16
REMARK    8  A    between atoms: _15  and  _18
REMARK    9  A    between atoms: _18  and  _19
REMARK   10  A    between atoms: _22  and  _24
REMARK   11  A    between atoms: _24  and  _25
REMARK   12  A    between atoms: _24  and  _27
REMARK   13  A    between atoms: _27  and  _28
REMARK   14  A    between atoms: _31  and  _33
REMARK   15  A    between atoms: _33  and  _34
REMARK   16  A    between atoms: _36  and  _38
REMARK   17  A    between atoms: _38  and  _39
REMARK   18  A    between atoms: _38  and  _41
REMARK   19  A    between atoms: _41  and  _42
REMARK   20  A    between atoms: _42  and  _43
REMARK   21  A    between atoms: _46  and  _48
REMARK   22  A    between atoms: _48  and  _49
REMARK   23  A    between atoms: _51  and  _53
REMARK   24  A    between atoms: _53  and  _54
REMARK   25  A    between atoms: _53  and  _56
REMARK   26  A    between atoms: _56  and  _57
REMARK   27  A    between atoms: _62  and  _63
REMARK   28  A    between atoms: _65  and  _67
REMARK   29  A    between atoms: _67  and  _68
REMARK   30  A    between atoms: _70  and  _72
REMARK   31  A    between atoms: _72  and  _73
REMARK   32  A    between atoms: _72  and  _75
REMARK   33  A    between atoms: _75  and  _76
REMARK   34  A    between atoms: _76  and  _77
REMARK   35  A    between atoms: _80  and  _82
REMARK   36  A    between atoms: _82  and  _83
REMARK   37  A    between atoms: _82  and  _85
REMARK   38  A    between atoms: _88  and  _90
REMARK   39  A    between atoms: _90  and  _91
REMARK   40  A    between atoms: _90  and  _93
REMARK   41  A    between atoms: _93  and  _94
REMARK   42  A    between atoms: _94  and  _95
REMARK   43  A    between atoms: _100  and  _102
REMARK   44  A    between atoms: _102  and  _103
REMARK   45  A    between atoms: _102  and  _105
REMARK   46  A    between atoms: _105  and  _106
REMARK   47  A    between atoms: _109  and  _111
REMARK   48  A    between atoms: _111  and  _112
REMARK   49  A    between atoms: _115  and  _117
REMARK   50  A    between atoms: _117  and  _118
REMARK   51  A    between atoms: _121  and  _123
REMARK   52  A    between atoms: _123  and  _124
REMARK   53  A    between atoms: _123  and  _126
REMARK   54  A    between atoms: _129  and  _131
REMARK   55  A    between atoms: _131  and  _132
REMARK   56  A    between atoms: _135  and  _137
REMARK   57  A    between atoms: _137  and  _138
REMARK   58  A    between atoms: _137  and  _140
REMARK   59  A    between atoms: _143  and  _145
REMARK   60  A    between atoms: _145  and  _146
REMARK   61  A    between atoms: _145  and  _148
REMARK   62  A    between atoms: _148  and  _149
REMARK   63  A    between atoms: _149  and  _150
REMARK   64  A    between atoms: _150  and  _151
REMARK   65  A    between atoms: _151  and  _152
REMARK   66  A    between atoms: _156  and  _158
REMARK   67  A    between atoms: _158  and  _159
REMARK   68  A    between atoms: _158  and  _161
REMARK   69  A    between atoms: _161  and  _162
REMARK   70  A    between atoms: _165  and  _167
REMARK   71  A    between atoms: _167  and  _168
REMARK   72  A    between atoms: _167  and  _170
REMARK   73  A    between atoms: _173  and  _175
REMARK   74  A    between atoms: _175  and  _176
REMARK   75  A    between atoms: _175  and  _178
REMARK   76  A    between atoms: _178  and  _179
REMARK   77  A    between atoms: _179  and  _180
REMARK   78  A    between atoms: _183  and  _185
REMARK   79  A    between atoms: _185  and  _186
REMARK   80  A    between atoms: _185  and  _188
REMARK   81  A    between atoms: _188  and  _189
REMARK   82  A    between atoms: _194  and  _196
REMARK   83  A    between atoms: _196  and  _197
REMARK   84  A    between atoms: _196  and  _199
REMARK   85  A    between atoms: _202  and  _204
REMARK   86  A    between atoms: _204  and  _205
REMARK   87  A    between atoms: _204  and  _207
REMARK   88  A    between atoms: _210  and  _212
REMARK   89  A    between atoms: _212  and  _213
REMARK   90  A    between atoms: _212  and  _215
REMARK   91  A    between atoms: _215  and  _216
REMARK   92  A    between atoms: _216  and  _217
REMARK   93  A    between atoms: _217  and  _218
REMARK   94  A    between atoms: _218  and  _219
REMARK   95  A    between atoms: _223  and  _225
REMARK   96  A    between atoms: _225  and  _226
REMARK   97  A    between atoms: _225  and  _228
REMARK   98  A    between atoms: _228  and  _229
REMARK   99  A    between atoms: _235  and  _237
REMARK  100  A    between atoms: _237  and  _238
REMARK  101  A    between atoms: _237  and  _240
REMARK  102  A    between atoms: _240  and  _241
REMARK  103  A    between atoms: _246  and  _247
REMARK  104  A    between atoms: _249  and  _251
REMARK  105  A    between atoms: _251  and  _252
REMARK  106  A    between atoms: _251  and  _254
REMARK  107  A    between atoms: _254  and  _255
REMARK  108  A    between atoms: _258  and  _260
REMARK  109  A    between atoms: _260  and  _261
REMARK  110  A    between atoms: _260  and  _263
REMARK  111  A    between atoms: _263  and  _264
REMARK  112  A    between atoms: _270  and  _272
REMARK  113  A    between atoms: _272  and  _273
REMARK  114  A    between atoms: _272  and  _275
REMARK  115  A    between atoms: _275  and  _276
REMARK  116  A    between atoms: _279  and  _281
REMARK  117  A    between atoms: _281  and  _282
REMARK  118  A    between atoms: _281  and  _284
REMARK  119  A    between atoms: _284  and  _285
REMARK  120  A    between atoms: _285  and  _286
REMARK  121  A    between atoms: _289  and  _291
REMARK  122  A    between atoms: _291  and  _292
REMARK  123  A    between atoms: _291  and  _294
REMARK  124  A    between atoms: _294  and  _295
REMARK  125  A    between atoms: _300  and  _301
REMARK  126  A    between atoms: _303  and  _305
REMARK  127  A    between atoms: _305  and  _306
REMARK  128  A    between atoms: _305  and  _308
REMARK  129  A    between atoms: _310  and  _312
REMARK  130  A    between atoms: _312  and  _313
REMARK  131  A    between atoms: _312  and  _315
REMARK  132  A    between atoms: _315  and  _316
REMARK  133  A    between atoms: _318  and  _320
REMARK  134  A    between atoms: _320  and  _321
REMARK  135  A    between atoms: _323  and  _325
REMARK  136  A    between atoms: _325  and  _326
REMARK  137  A    between atoms: _328  and  _330
REMARK  138  A    between atoms: _330  and  _331
REMARK  139  A    between atoms: _330  and  _333
REMARK  140  A    between atoms: _333  and  _334
REMARK  141  A    between atoms: _334  and  _335
REMARK  142  A    between atoms: _338  and  _340
REMARK  143  A    between atoms: _340  and  _341
REMARK  144  A    between atoms: _340  and  _343
REMARK  145  A    between atoms: _343  and  _344
REMARK  146  A    between atoms: _347  and  _349
REMARK  147  A    between atoms: _349  and  _350
REMARK  148  A    between atoms: _349  and  _352
REMARK  149  A    between atoms: _352  and  _353
REMARK  150  A    between atoms: _359  and  _361
REMARK  151  A    between atoms: _361  and  _362
REMARK  152  A    between atoms: _361  and  _364
REMARK  153  A    between atoms: _364  and  _365
REMARK  154  A    between atoms: _368  and  _370
REMARK  155  A    between atoms: _370  and  _371
REMARK  156  A    between atoms: _370  and  _373
REMARK  157  A    between atoms: _373  and  _374
REMARK  158  A    between atoms: _379  and  _381
REMARK  159  A    between atoms: _381  and  _382
REMARK  160  A    between atoms: _381  and  _384
REMARK  161  A    between atoms: _384  and  _385
REMARK  162  A    between atoms: _388  and  _390
REMARK  163  A    between atoms: _390  and  _391
REMARK  164  A    between atoms: _390  and  _393
REMARK  165  A    between atoms: _393  and  _394
REMARK  166  A    between atoms: _394  and  _395
REMARK  167  A    between atoms: _395  and  _396
REMARK  168  A    between atoms: _396  and  _397
REMARK  169  A    between atoms: _402  and  _403
REMARK  170  A    between atoms: _408  and  _410
REMARK  171  A    between atoms: _410  and  _411
REMARK  172  A    between atoms: _410  and  _413
REMARK  173  A    between atoms: _413  and  _414
REMARK  174  A    between atoms: _414  and  _415
REMARK  175  A    between atoms: _418  and  _420
REMARK  176  A    between atoms: _420  and  _421
REMARK  177  A    between atoms: _420  and  _423
REMARK  178  A    between atoms: _423  and  _424
REMARK  179  A    between atoms: _429  and  _431
REMARK  180  A    between atoms: _431  and  _432
REMARK  181  A    between atoms: _431  and  _434
REMARK  182  A    between atoms: _434  and  _435
REMARK  183  A    between atoms: _438  and  _440
REMARK  184  A    between atoms: _440  and  _441
REMARK  185  A    between atoms: _440  and  _443
REMARK  186  A    between atoms: _443  and  _444
REMARK  187  A    between atoms: _447  and  _449
REMARK  188  A    between atoms: _449  and  _450
REMARK  189  A    between atoms: _449  and  _452
REMARK  190  A    between atoms: _452  and  _453
REMARK  191  A    between atoms: _456  and  _458
REMARK  192  A    between atoms: _458  and  _459
REMARK  193  A    between atoms: _458  and  _461
REMARK  194  A    between atoms: _461  and  _462
REMARK  195  A    between atoms: _465  and  _467
REMARK  196  A    between atoms: _467  and  _468
REMARK  197  A    between atoms: _467  and  _470
REMARK  198  A    between atoms: _470  and  _471
REMARK  199  A    between atoms: _471  and  _472
REMARK  200  A    between atoms: _472  and  _473
REMARK  201  A    between atoms: _473  and  _474
REMARK  202  A    between atoms: _478  and  _480
REMARK  203  A    between atoms: _480  and  _481
REMARK  204  A    between atoms: _480  and  _483
REMARK  205  A    between atoms: _483  and  _484
REMARK  206  A    between atoms: _487  and  _489
REMARK  207  A    between atoms: _489  and  _490
REMARK  208  A    between atoms: _489  and  _492
REMARK  209  A    between atoms: _492  and  _493
REMARK  210  A    between atoms: _495  and  _497
REMARK  211  A    between atoms: _497  and  _498
REMARK  212  A    between atoms: _497  and  _500
REMARK  213  A    between atoms: _500  and  _501
REMARK  214  A    between atoms: _504  and  _506
REMARK  215  A    between atoms: _506  and  _507
REMARK  216  A    between atoms: _506  and  _509
REMARK  217  A    between atoms: _509  and  _510
REMARK  218  A    between atoms: _516  and  _518
REMARK  219  A    between atoms: _518  and  _519
REMARK  220  A    between atoms: _521  and  _523
REMARK  221  A    between atoms: _523  and  _524
REMARK  222  A    between atoms: _523  and  _526
REMARK  223  A    between atoms: _526  and  _527
REMARK                            x       y       z     vdW  Elec       q    Type
REMARK                         _______ _______ _______ _____ _____    ______ ____
ROOT
ATOM      1  O   HOH     1       5.040  16.428  24.075  0.00  0.00    +0.000 OA
ENDROOT
TORSDOF 0
REMARK  Name = ../refined-set-2016/1nvq/1nvq_pocket.pdb
REMARK  223 active torsions:
REMARK  status: ('A' for Active; 'I' for Inactive)
REMARK    1  A    between atoms: _1  and  _3
REMARK    2  A    between atoms: _3  and  _4
REMARK    3  A    between atoms: _3  and  _6
REMARK    4  A    between atoms: _6  and  _7
REMARK    5  A    between atoms: _7  and  _8
REMARK    6  A    between atoms: _13  and  _15
REMARK    7  A    between atoms: _15  and  _16
REMARK    8  A    between atoms: _15  and  _18
REMARK    9  A    between atoms: _18  and  _19
REMARK   10  A    between atoms: _22  and  _24
REMARK   11  A    between atoms: _24  and  _25
REMARK   12  A    between atoms: _24  and  _27
REMARK   13  A    between atoms: _27  and  _28
REMARK   14  A    between atoms: _31  and  _33
REMARK   15  A    between atoms: _33  and  _34
REMARK   16  A    between atoms: _36  and  _38
REMARK   17  A    between atoms: _38  and  _39
REMARK   18  A    between atoms: _38  and  _41
REMARK   19  A    between atoms: _41  and  _42
REMARK   20  A    between atoms: _42  and  _43
REMARK   21  A    between atoms: _46  and  _48
REMARK   22  A    between atoms: _48  and  _49
REMARK   23  A    between atoms: _51  and  _53
REMARK   24  A    between atoms: _53  and  _54
REMARK   25  A    between atoms: _53  and  _56
REMARK   26  A    between atoms: _56  and  _57
REMARK   27  A    between atoms: _62  and  _63
REMARK   28  A    between atoms: _65  and  _67
REMARK   29  A    between atoms: _67  and  _68
REMARK   30  A    between atoms: _70  and  _72
REMARK   31  A    between atoms: _72  and  _73
REMARK   32  A    between atoms: _72  and  _75
REMARK   33  A    between atoms: _75  and  _76
REMARK   34  A    between atoms: _76  and  _77
REMARK   35  A    between atoms: _80  and  _82
REMARK   36  A    between atoms: _82  and  _83
REMARK   37  A    between atoms: _82  and  _85
REMARK   38  A    between atoms: _88  and  _90
REMARK   39  A    between atoms: _90  and  _91
REMARK   40  A    between atoms: _90  and  _93
REMARK   41  A    between atoms: _93  and  _94
REMARK   42  A    between atoms: _94  and  _95
REMARK   43  A    between atoms: _100  and  _102
REMARK   44  A    between atoms: _102  and  _103
REMARK   45  A    between atoms: _102  and  _105
REMARK   46  A    between atoms: _105  and  _106
REMARK   47  A    between atoms: _109  and  _111
REMARK   48  A    between atoms: _111  and  _112
REMARK   49  A    between atoms: _115  and  _117
REMARK   50  A    between atoms: _117  and  _118
REMARK   51  A    between atoms: _121  and  _123
REMARK   52  A    between atoms: _123  and  _124
REMARK   53  A    between atoms: _123  and  _126
REMARK   54  A    between atoms: _129  and  _131
REMARK   55  A    between atoms: _131  and  _132
REMARK   56  A    between atoms: _135  and  _137
REMARK   57  A    between atoms: _137  and  _138
REMARK   58  A    between atoms: _137  and  _140
REMARK   59  A    between atoms: _143  and  _145
REMARK   60  A    between atoms: _145  and  _146
REMARK   61  A    between atoms: _145  and  _148
REMARK   62  A    between atoms: _148  and  _149
REMARK   63  A    between atoms: _149  and  _150
REMARK   64  A    between atoms: _150  and  _151
REMARK   65  A    between atoms: _151  and  _152
REMARK   66  A    between atoms: _156  and  _158
REMARK   67  A    between atoms: _158  and  _159
REMARK   68  A    between atoms: _158  and  _161
REMARK   69  A    between atoms: _161  and  _162
REMARK   70  A    between atoms: _165  and  _167
REMARK   71  A    between atoms: _167  and  _168
REMARK   72  A    between atoms: _167  and  _170
REMARK   73  A    between atoms: _173  and  _175
REMARK   74  A    between atoms: _175  and  _176
REMARK   75  A    between atoms: _175  and  _178
REMARK   76  A    between atoms: _178  and  _179
REMARK   77  A    between atoms: _179  and  _180
REMARK   78  A    between atoms: _183  and  _185
REMARK   79  A    between atoms: _185  and  _186
REMARK   80  A    between atoms: _185  and  _188
REMARK   81  A    between atoms: _188  and  _189
REMARK   82  A    between atoms: _194  and  _196
REMARK   83  A    between atoms: _196  and  _197
REMARK   84  A    between atoms: _196  and  _199
REMARK   85  A    between atoms: _202  and  _204
REMARK   86  A    between atoms: _204  and  _205
REMARK   87  A    between atoms: _204  and  _207
REMARK   88  A    between atoms: _210  and  _212
REMARK   89  A    between atoms: _212  and  _213
REMARK   90  A    between atoms: _212  and  _215
REMARK   91  A    between atoms: _215  and  _216
REMARK   92  A    between atoms: _216  and  _217
REMARK   93  A    between atoms: _217  and  _218
REMARK   94  A    between atoms: _218  and  _219
REMARK   95  A    between atoms: _223  and  _225
REMARK   96  A    between atoms: _225  and  _226
REMARK   97  A    between atoms: _225  and  _228
REMARK   98  A    between atoms: _228  and  _229
REMARK   99  A    between atoms: _235  and  _237
REMARK  100  A    between atoms: _237  and  _238
REMARK  101  A    between atoms: _237  and  _240
REMARK  102  A    between atoms: _240  and  _241
REMARK  103  A    between atoms: _246  and  _247
REMARK  104  A    between atoms: _249  and  _251
REMARK  105  A    between atoms: _251  and  _252
REMARK  106  A    between atoms: _251  and  _254
REMARK  107  A    between atoms: _254  and  _255
REMARK  108  A    between atoms: _258  and  _260
REMARK  109  A    between atoms: _260  and  _261
REMARK  110  A    between atoms: _260  and  _263
REMARK  111  A    between atoms: _263  and  _264
REMARK  112  A    between atoms: _270  and  _272
REMARK  113  A    between atoms: _272  and  _273
REMARK  114  A    between atoms: _272  and  _275
REMARK  115  A    between atoms: _275  and  _276
REMARK  116  A    between atoms: _279  and  _281
REMARK  117  A    between atoms: _281  and  _282
REMARK  118  A    between atoms: _281  and  _284
REMARK  119  A    between atoms: _284  and  _285
REMARK  120  A    between atoms: _285  and  _286
REMARK  121  A    between atoms: _289  and  _291
REMARK  122  A    between atoms: _291  and  _292
REMARK  123  A    between atoms: _291  and  _294
REMARK  124  A    between atoms: _294  and  _295
REMARK  125  A    between atoms: _300  and  _301
REMARK  126  A    between atoms: _303  and  _305
REMARK  127  A    between atoms: _305  and  _306
REMARK  128  A    between atoms: _305  and  _308
REMARK  129  A    between atoms: _310  and  _312
REMARK  130  A    between atoms: _312  and  _313
REMARK  131  A    between atoms: _312  and  _315
REMARK  132  A    between atoms: _315  and  _316
REMARK  133  A    between atoms: _318  and  _320
REMARK  134  A    between atoms: _320  and  _321
REMARK  135  A    between atoms: _323  and  _325
REMARK  136  A    between atoms: _325  and  _326
REMARK  137  A    between atoms: _328  and  _330
REMARK  138  A    between atoms: _330  and  _331
REMARK  139  A    between atoms: _330  and  _333
REMARK  140  A    between atoms: _333  and  _334
REMARK  141  A    between atoms: _334  and  _335
REMARK  142  A    between atoms: _338  and  _340
REMARK  143  A    between atoms: _340  and  _341
REMARK  144  A    between atoms: _340  and  _343
REMARK  145  A    between atoms: _343  and  _344
REMARK  146  A    between atoms: _347  and  _349
REMARK  147  A    between atoms: _349  and  _350
REMARK  148  A    between atoms: _349  and  _352
REMARK  149  A    between atoms: _352  and  _353
REMARK  150  A    between atoms: _359  and  _361
REMARK  151  A    between atoms: _361  and  _362
REMARK  152  A    between atoms: _361  and  _364
REMARK  153  A    between atoms: _364  and  _365
REMARK  154  A    between atoms: _368  and  _370
REMARK  155  A    between atoms: _370  and  _371
REMARK  156  A    between atoms: _370  and  _373
REMARK  157  A    between atoms: _373  and  _374
REMARK  158  A    between atoms: _379  and  _381
REMARK  159  A    between atoms: _381  and  _382
REMARK  160  A    between atoms: _381  and  _384
REMARK  161  A    between atoms: _384  and  _385
REMARK  162  A    between atoms: _388  and  _390
REMARK  163  A    between atoms: _390  and  _391
REMARK  164  A    between atoms: _390  and  _393
REMARK  165  A    between atoms: _393  and  _394
REMARK  166  A    between atoms: _394  and  _395
REMARK  167  A    between atoms: _395  and  _396
REMARK  168  A    between atoms: _396  and  _397
REMARK  169  A    between atoms: _402  and  _403
REMARK  170  A    between atoms: _408  and  _410
REMARK  171  A    between atoms: _410  and  _411
REMARK  172  A    between atoms: _410  and  _413
REMARK  173  A    between atoms: _413  and  _414
REMARK  174  A    between atoms: _414  and  _415
REMARK  175  A    between atoms: _418  and  _420
REMARK  176  A    between atoms: _420  and  _421
REMARK  177  A    between atoms: _420  and  _423
REMARK  178  A    between atoms: _423  and  _424
REMARK  179  A    between atoms: _429  and  _431
REMARK  180  A    between atoms: _431  and  _432
REMARK  181  A    between atoms: _431  and  _434
REMARK  182  A    between atoms: _434  and  _435
REMARK  183  A    between atoms: _438  and  _440
REMARK  184  A    between atoms: _440  and  _441
REMARK  185  A    between atoms: _440  and  _443
REMARK  186  A    between atoms: _443  and  _444
REMARK  187  A    between atoms: _447  and  _449
REMARK  188  A    between atoms: _449  and  _450
REMARK  189  A    between atoms: _449  and  _452
REMARK  190  A    between atoms: _452  and  _453
REMARK  191  A    between atoms: _456  and  _458
REMARK  192  A    between atoms: _458  and  _459
REMARK  193  A    between atoms: _458  and  _461
REMARK  194  A    between atoms: _461  and  _462
REMARK  195  A    between atoms: _465  and  _467
REMARK  196  A    between atoms: _467  and  _468
REMARK  197  A    between atoms: _467  and  _470
REMARK  198  A    between atoms: _470  and  _471
REMARK  199  A    between atoms: _471  and  _472
REMARK  200  A    between atoms: _472  and  _473
REMARK  201  A    between atoms: _473  and  _474
REMARK  202  A    between atoms: _478  and  _480
REMARK  203  A    between atoms: _480  and  _481
REMARK  204  A    between atoms: _480  and  _483
REMARK  205  A    between atoms: _483  and  _484
REMARK  206  A    between atoms: _487  and  _489
REMARK  207  A    between atoms: _489  and  _490
REMARK  208  A    between atoms: _489  and  _492
REMARK  209  A    between atoms: _492  and  _493
REMARK  210  A    between atoms: _495  and  _497
REMARK  211  A    between atoms: _497  and  _498
REMARK  212  A    between atoms: _497  and  _500
REMARK  213  A    between atoms: _500  and  _501
REMARK  214  A    between atoms: _504  and  _506
REMARK  215  A    between atoms: _506  and  _507
REMARK  216  A    between atoms: _506  and  _509
REMARK  217  A    between atoms: _509  and  _510
REMARK  218  A    between atoms: _516  and  _518
REMARK  219  A    between atoms: _518  and  _519
REMARK  220  A    between atoms: _521  and  _523
REMARK  221  A    between atoms: _523  and  _524
REMARK  222  A    between atoms: _523  and  _526
REMARK  223  A    between atoms: _526  and  _527
REMARK                            x       y       z     vdW  Elec       q    Type
REMARK                         _______ _______ _______ _____ _____    ______ ____
ROOT
ATOM      1  O   HOH     1      11.894   2.932  12.727  0.00  0.00    +0.000 OA
ENDROOT
TORSDOF 0
REMARK  Name = ../refined-set-2016/1nvq/1nvq_pocket.pdb
REMARK  223 active torsions:
REMARK  status: ('A' for Active; 'I' for Inactive)
REMARK    1  A    between atoms: _1  and  _3
REMARK    2  A    between atoms: _3  and  _4
REMARK    3  A    between atoms: _3  and  _6
REMARK    4  A    between atoms: _6  and  _7
REMARK    5  A    between atoms: _7  and  _8
REMARK    6  A    between atoms: _13  and  _15
REMARK    7  A    between atoms: _15  and  _16
REMARK    8  A    between atoms: _15  and  _18
REMARK    9  A    between atoms: _18  and  _19
REMARK   10  A    between atoms: _22  and  _24
REMARK   11  A    between atoms: _24  and  _25
REMARK   12  A    between atoms: _24  and  _27
REMARK   13  A    between atoms: _27  and  _28
REMARK   14  A    between atoms: _31  and  _33
REMARK   15  A    between atoms: _33  and  _34
REMARK   16  A    between atoms: _36  and  _38
REMARK   17  A    between atoms: _38  and  _39
REMARK   18  A    between atoms: _38  and  _41
REMARK   19  A    between atoms: _41  and  _42
REMARK   20  A    between atoms: _42  and  _43
REMARK   21  A    between atoms: _46  and  _48
REMARK   22  A    between atoms: _48  and  _49
REMARK   23  A    between atoms: _51  and  _53
REMARK   24  A    between atoms: _53  and  _54
REMARK   25  A    between atoms: _53  and  _56
REMARK   26  A    between atoms: _56  and  _57
REMARK   27  A    between atoms: _62  and  _63
REMARK   28  A    between atoms: _65  and  _67
REMARK   29  A    between atoms: _67  and  _68
REMARK   30  A    between atoms: _70  and  _72
REMARK   31  A    between atoms: _72  and  _73
REMARK   32  A    between atoms: _72  and  _75
REMARK   33  A    between atoms: _75  and  _76
REMARK   34  A    between atoms: _76  and  _77
REMARK   35  A    between atoms: _80  and  _82
REMARK   36  A    between atoms: _82  and  _83
REMARK   37  A    between atoms: _82  and  _85
REMARK   38  A    between atoms: _88  and  _90
REMARK   39  A    between atoms: _90  and  _91
REMARK   40  A    between atoms: _90  and  _93
REMARK   41  A    between atoms: _93  and  _94
REMARK   42  A    between atoms: _94  and  _95
REMARK   43  A    between atoms: _100  and  _102
REMARK   44  A    between atoms: _102  and  _103
REMARK   45  A    between atoms: _102  and  _105
REMARK   46  A    between atoms: _105  and  _106
REMARK   47  A    between atoms: _109  and  _111
REMARK   48  A    between atoms: _111  and  _112
REMARK   49  A    between atoms: _115  and  _117
REMARK   50  A    between atoms: _117  and  _118
REMARK   51  A    between atoms: _121  and  _123
REMARK   52  A    between atoms: _123  and  _124
REMARK   53  A    between atoms: _123  and  _126
REMARK   54  A    between atoms: _129  and  _131
REMARK   55  A    between atoms: _131  and  _132
REMARK   56  A    between atoms: _135  and  _137
REMARK   57  A    between atoms: _137  and  _138
REMARK   58  A    between atoms: _137  and  _140
REMARK   59  A    between atoms: _143  and  _145
REMARK   60  A    between atoms: _145  and  _146
REMARK   61  A    between atoms: _145  and  _148
REMARK   62  A    between atoms: _148  and  _149
REMARK   63  A    between atoms: _149  and  _150
REMARK   64  A    between atoms: _150  and  _151
REMARK   65  A    between atoms: _151  and  _152
REMARK   66  A    between atoms: _156  and  _158
REMARK   67  A    between atoms: _158  and  _159
REMARK   68  A    between atoms: _158  and  _161
REMARK   69  A    between atoms: _161  and  _162
REMARK   70  A    between atoms: _165  and  _167
REMARK   71  A    between atoms: _167  and  _168
REMARK   72  A    between atoms: _167  and  _170
REMARK   73  A    between atoms: _173  and  _175
REMARK   74  A    between atoms: _175  and  _176
REMARK   75  A    between atoms: _175  and  _178
REMARK   76  A    between atoms: _178  and  _179
REMARK   77  A    between atoms: _179  and  _180
REMARK   78  A    between atoms: _183  and  _185
REMARK   79  A    between atoms: _185  and  _186
REMARK   80  A    between atoms: _185  and  _188
REMARK   81  A    between atoms: _188  and  _189
REMARK   82  A    between atoms: _194  and  _196
REMARK   83  A    between atoms: _196  and  _197
REMARK   84  A    between atoms: _196  and  _199
REMARK   85  A    between atoms: _202  and  _204
REMARK   86  A    between atoms: _204  and  _205
REMARK   87  A    between atoms: _204  and  _207
REMARK   88  A    between atoms: _210  and  _212
REMARK   89  A    between atoms: _212  and  _213
REMARK   90  A    between atoms: _212  and  _215
REMARK   91  A    between atoms: _215  and  _216
REMARK   92  A    between atoms: _216  and  _217
REMARK   93  A    between atoms: _217  and  _218
REMARK   94  A    between atoms: _218  and  _219
REMARK   95  A    between atoms: _223  and  _225
REMARK   96  A    between atoms: _225  and  _226
REMARK   97  A    between atoms: _225  and  _228
REMARK   98  A    between atoms: _228  and  _229
REMARK   99  A    between atoms: _235  and  _237
REMARK  100  A    between atoms: _237  and  _238
REMARK  101  A    between atoms: _237  and  _240
REMARK  102  A    between atoms: _240  and  _241
REMARK  103  A    between atoms: _246  and  _247
REMARK  104  A    between atoms: _249  and  _251
REMARK  105  A    between atoms: _251  and  _252
REMARK  106  A    between atoms: _251  and  _254
REMARK  107  A    between atoms: _254  and  _255
REMARK  108  A    between atoms: _258  and  _260
REMARK  109  A    between atoms: _260  and  _261
REMARK  110  A    between atoms: _260  and  _263
REMARK  111  A    between atoms: _263  and  _264
REMARK  112  A    between atoms: _270  and  _272
REMARK  113  A    between atoms: _272  and  _273
REMARK  114  A    between atoms: _272  and  _275
REMARK  115  A    between atoms: _275  and  _276
REMARK  116  A    between atoms: _279  and  _281
REMARK  117  A    between atoms: _281  and  _282
REMARK  118  A    between atoms: _281  and  _284
REMARK  119  A    between atoms: _284  and  _285
REMARK  120  A    between atoms: _285  and  _286
REMARK  121  A    between atoms: _289  and  _291
REMARK  122  A    between atoms: _291  and  _292
REMARK  123  A    between atoms: _291  and  _294
REMARK  124  A    between atoms: _294  and  _295
REMARK  125  A    between atoms: _300  and  _301
REMARK  126  A    between atoms: _303  and  _305
REMARK  127  A    between atoms: _305  and  _306
REMARK  128  A    between atoms: _305  and  _308
REMARK  129  A    between atoms: _310  and  _312
REMARK  130  A    between atoms: _312  and  _313
REMARK  131  A    between atoms: _312  and  _315
REMARK  132  A    between atoms: _315  and  _316
REMARK  133  A    between atoms: _318  and  _320
REMARK  134  A    between atoms: _320  and  _321
REMARK  135  A    between atoms: _323  and  _325
REMARK  136  A    between atoms: _325  and  _326
REMARK  137  A    between atoms: _328  and  _330
REMARK  138  A    between atoms: _330  and  _331
REMARK  139  A    between atoms: _330  and  _333
REMARK  140  A    between atoms: _333  and  _334
REMARK  141  A    between atoms: _334  and  _335
REMARK  142  A    between atoms: _338  and  _340
REMARK  143  A    between atoms: _340  and  _341
REMARK  144  A    between atoms: _340  and  _343
REMARK  145  A    between atoms: _343  and  _344
REMARK  146  A    between atoms: _347  and  _349
REMARK  147  A    between atoms: _349  and  _350
REMARK  148  A    between atoms: _349  and  _352
REMARK  149  A    between atoms: _352  and  _353
REMARK  150  A    between atoms: _359  and  _361
REMARK  151  A    between atoms: _361  and  _362
REMARK  152  A    between atoms: _361  and  _364
REMARK  153  A    between atoms: _364  and  _365
REMARK  154  A    between atoms: _368  and  _370
REMARK  155  A    between atoms: _370  and  _371
REMARK  156  A    between atoms: _370  and  _373
REMARK  157  A    between atoms: _373  and  _374
REMARK  158  A    between atoms: _379  and  _381
REMARK  159  A    between atoms: _381  and  _382
REMARK  160  A    between atoms: _381  and  _384
REMARK  161  A    between atoms: _384  and  _385
REMARK  162  A    between atoms: _388  and  _390
REMARK  163  A    between atoms: _390  and  _391
REMARK  164  A    between atoms: _390  and  _393
REMARK  165  A    between atoms: _393  and  _394
REMARK  166  A    between atoms: _394  and  _395
REMARK  167  A    between atoms: _395  and  _396
REMARK  168  A    between atoms: _396  and  _397
REMARK  169  A    between atoms: _402  and  _403
REMARK  170  A    between atoms: _408  and  _410
REMARK  171  A    between atoms: _410  and  _411
REMARK  172  A    between atoms: _410  and  _413
REMARK  173  A    between atoms: _413  and  _414
REMARK  174  A    between atoms: _414  and  _415
REMARK  175  A    between atoms: _418  and  _420
REMARK  176  A    between atoms: _420  and  _421
REMARK  177  A    between atoms: _420  and  _423
REMARK  178  A    between atoms: _423  and  _424
REMARK  179  A    between atoms: _429  and  _431
REMARK  180  A    between atoms: _431  and  _432
REMARK  181  A    between atoms: _431  and  _434
REMARK  182  A    between atoms: _434  and  _435
REMARK  183  A    between atoms: _438  and  _440
REMARK  184  A    between atoms: _440  and  _441
REMARK  185  A    between atoms: _440  and  _443
REMARK  186  A    between atoms: _443  and  _444
REMARK  187  A    between atoms: _447  and  _449
REMARK  188  A    between atoms: _449  and  _450
REMARK  189  A    between atoms: _449  and  _452
REMARK  190  A    between atoms: _452  and  _453
REMARK  191  A    between atoms: _456  and  _458
REMARK  192  A    between atoms: _458  and  _459
REMARK  193  A    between atoms: _458  and  _461
REMARK  194  A    between atoms: _461  and  _462
REMARK  195  A    between atoms: _465  and  _467
REMARK  196  A    between atoms: _467  and  _468
REMARK  197  A    between atoms: _467  and  _470
REMARK  198  A    between atoms: _470  and  _471
REMARK  199  A    between atoms: _471  and  _472
REMARK  200  A    between atoms: _472  and  _473
REMARK  201  A    between atoms: _473  and  _474
REMARK  202  A    between atoms: _478  and  _480
REMARK  203  A    between atoms: _480  and  _481
REMARK  204  A    between atoms: _480  and  _483
REMARK  205  A    between atoms: _483  and  _484
REMARK  206  A    between atoms: _487  and  _489
REMARK  207  A    between atoms: _489  and  _490
REMARK  208  A    between atoms: _489  and  _492
REMARK  209  A    between atoms: _492  and  _493
REMARK  210  A    between atoms: _495  and  _497
REMARK  211  A    between atoms: _497  and  _498
REMARK  212  A    between atoms: _497  and  _500
REMARK  213  A    between atoms: _500  and  _501
REMARK  214  A    between atoms: _504  and  _506
REMARK  215  A    between atoms: _506  and  _507
REMARK  216  A    between atoms: _506  and  _509
REMARK  217  A    between atoms: _509  and  _510
REMARK  218  A    between atoms: _516  and  _518
REMARK  219  A    between atoms: _518  and  _519
REMARK  220  A    between atoms: _521  and  _523
REMARK  221  A    between atoms: _523  and  _524
REMARK  222  A    between atoms: _523  and  _526
REMARK  223  A    between atoms: _526  and  _527
REMARK                            x       y       z     vdW  Elec       q    Type
REMARK                         _______ _______ _______ _____ _____    ______ ____
ROOT
ATOM      1  O   HOH     1      -2.908   1.449   7.759  0.00  0.00    +0.000 OA
ENDROOT
TORSDOF 0
REMARK  Name = ../refined-set-2016/1nvq/1nvq_pocket.pdb
REMARK  223 active torsions:
REMARK  status: ('A' for Active; 'I' for Inactive)
REMARK    1  A    between atoms: _1  and  _3
REMARK    2  A    between atoms: _3  and  _4
REMARK    3  A    between atoms: _3  and  _6
REMARK    4  A    between atoms: _6  and  _7
REMARK    5  A    between atoms: _7  and  _8
REMARK    6  A    between atoms: _13  and  _15
REMARK    7  A    between atoms: _15  and  _16
REMARK    8  A    between atoms: _15  and  _18
REMARK    9  A    between atoms: _18  and  _19
REMARK   10  A    between atoms: _22  and  _24
REMARK   11  A    between atoms: _24  and  _25
REMARK   12  A    between atoms: _24  and  _27
REMARK   13  A    between atoms: _27  and  _28
REMARK   14  A    between atoms: _31  and  _33
REMARK   15  A    between atoms: _33  and  _34
REMARK   16  A    between atoms: _36  and  _38
REMARK   17  A    between atoms: _38  and  _39
REMARK   18  A    between atoms: _38  and  _41
REMARK   19  A    between atoms: _41  and  _42
REMARK   20  A    between atoms: _42  and  _43
REMARK   21  A    between atoms: _46  and  _48
REMARK   22  A    between atoms: _48  and  _49
REMARK   23  A    between atoms: _51  and  _53
REMARK   24  A    between atoms: _53  and  _54
REMARK   25  A    between atoms: _53  and  _56
REMARK   26  A    between atoms: _56  and  _57
REMARK   27  A    between atoms: _62  and  _63
REMARK   28  A    between atoms: _65  and  _67
REMARK   29  A    between atoms: _67  and  _68
REMARK   30  A    between atoms: _70  and  _72
REMARK   31  A    between atoms: _72  and  _73
REMARK   32  A    between atoms: _72  and  _75
REMARK   33  A    between atoms: _75  and  _76
REMARK   34  A    between atoms: _76  and  _77
REMARK   35  A    between atoms: _80  and  _82
REMARK   36  A    between atoms: _82  and  _83
REMARK   37  A    between atoms: _82  and  _85
REMARK   38  A    between atoms: _88  and  _90
REMARK   39  A    between atoms: _90  and  _91
REMARK   40  A    between atoms: _90  and  _93
REMARK   41  A    between atoms: _93  and  _94
REMARK   42  A    between atoms: _94  and  _95
REMARK   43  A    between atoms: _100  and  _102
REMARK   44  A    between atoms: _102  and  _103
REMARK   45  A    between atoms: _102  and  _105
REMARK   46  A    between atoms: _105  and  _106
REMARK   47  A    between atoms: _109  and  _111
REMARK   48  A    between atoms: _111  and  _112
REMARK   49  A    between atoms: _115  and  _117
REMARK   50  A    between atoms: _117  and  _118
REMARK   51  A    between atoms: _121  and  _123
REMARK   52  A    between atoms: _123  and  _124
REMARK   53  A    between atoms: _123  and  _126
REMARK   54  A    between atoms: _129  and  _131
REMARK   55  A    between atoms: _131  and  _132
REMARK   56  A    between atoms: _135  and  _137
REMARK   57  A    between atoms: _137  and  _138
REMARK   58  A    between atoms: _137  and  _140
REMARK   59  A    between atoms: _143  and  _145
REMARK   60  A    between atoms: _145  and  _146
REMARK   61  A    between atoms: _145  and  _148
REMARK   62  A    between atoms: _148  and  _149
REMARK   63  A    between atoms: _149  and  _150
REMARK   64  A    between atoms: _150  and  _151
REMARK   65  A    between atoms: _151  and  _152
REMARK   66  A    between atoms: _156  and  _158
REMARK   67  A    between atoms: _158  and  _159
REMARK   68  A    between atoms: _158  and  _161
REMARK   69  A    between atoms: _161  and  _162
REMARK   70  A    between atoms: _165  and  _167
REMARK   71  A    between atoms: _167  and  _168
REMARK   72  A    between atoms: _167  and  _170
REMARK   73  A    between atoms: _173  and  _175
REMARK   74  A    between atoms: _175  and  _176
REMARK   75  A    between atoms: _175  and  _178
REMARK   76  A    between atoms: _178  and  _179
REMARK   77  A    between atoms: _179  and  _180
REMARK   78  A    between atoms: _183  and  _185
REMARK   79  A    between atoms: _185  and  _186
REMARK   80  A    between atoms: _185  and  _188
REMARK   81  A    between atoms: _188  and  _189
REMARK   82  A    between atoms: _194  and  _196
REMARK   83  A    between atoms: _196  and  _197
REMARK   84  A    between atoms: _196  and  _199
REMARK   85  A    between atoms: _202  and  _204
REMARK   86  A    between atoms: _204  and  _205
REMARK   87  A    between atoms: _204  and  _207
REMARK   88  A    between atoms: _210  and  _212
REMARK   89  A    between atoms: _212  and  _213
REMARK   90  A    between atoms: _212  and  _215
REMARK   91  A    between atoms: _215  and  _216
REMARK   92  A    between atoms: _216  and  _217
REMARK   93  A    between atoms: _217  and  _218
REMARK   94  A    between atoms: _218  and  _219
REMARK   95  A    between atoms: _223  and  _225
REMARK   96  A    between atoms: _225  and  _226
REMARK   97  A    between atoms: _225  and  _228
REMARK   98  A    between atoms: _228  and  _229
REMARK   99  A    between atoms: _235  and  _237
REMARK  100  A    between atoms: _237  and  _238
REMARK  101  A    between atoms: _237  and  _240
REMARK  102  A    between atoms: _240  and  _241
REMARK  103  A    between atoms: _246  and  _247
REMARK  104  A    between atoms: _249  and  _251
REMARK  105  A    between atoms: _251  and  _252
REMARK  106  A    between atoms: _251  and  _254
REMARK  107  A    between atoms: _254  and  _255
REMARK  108  A    between atoms: _258  and  _260
REMARK  109  A    between atoms: _260  and  _261
REMARK  110  A    between atoms: _260  and  _263
REMARK  111  A    between atoms: _263  and  _264
REMARK  112  A    between atoms: _270  and  _272
REMARK  113  A    between atoms: _272  and  _273
REMARK  114  A    between atoms: _272  and  _275
REMARK  115  A    between atoms: _275  and  _276
REMARK  116  A    between atoms: _279  and  _281
REMARK  117  A    between atoms: _281  and  _282
REMARK  118  A    between atoms: _281  and  _284
REMARK  119  A    between atoms: _284  and  _285
REMARK  120  A    between atoms: _285  and  _286
REMARK  121  A    between atoms: _289  and  _291
REMARK  122  A    between atoms: _291  and  _292
REMARK  123  A    between atoms: _291  and  _294
REMARK  124  A    between atoms: _294  and  _295
REMARK  125  A    between atoms: _300  and  _301
REMARK  126  A    between atoms: _303  and  _305
REMARK  127  A    between atoms: _305  and  _306
REMARK  128  A    between atoms: _305  and  _308
REMARK  129  A    between atoms: _310  and  _312
REMARK  130  A    between atoms: _312  and  _313
REMARK  131  A    between atoms: _312  and  _315
REMARK  132  A    between atoms: _315  and  _316
REMARK  133  A    between atoms: _318  and  _320
REMARK  134  A    between atoms: _320  and  _321
REMARK  135  A    between atoms: _323  and  _325
REMARK  136  A    between atoms: _325  and  _326
REMARK  137  A    between atoms: _328  and  _330
REMARK  138  A    between atoms: _330  and  _331
REMARK  139  A    between atoms: _330  and  _333
REMARK  140  A    between atoms: _333  and  _334
REMARK  141  A    between atoms: _334  and  _335
REMARK  142  A    between atoms: _338  and  _340
REMARK  143  A    between atoms: _340  and  _341
REMARK  144  A    between atoms: _340  and  _343
REMARK  145  A    between atoms: _343  and  _344
REMARK  146  A    between atoms: _347  and  _349
REMARK  147  A    between atoms: _349  and  _350
REMARK  148  A    between atoms: _349  and  _352
REMARK  149  A    between atoms: _352  and  _353
REMARK  150  A    between atoms: _359  and  _361
REMARK  151  A    between atoms: _361  and  _362
REMARK  152  A    between atoms: _361  and  _364
REMARK  153  A    between atoms: _364  and  _365
REMARK  154  A    between atoms: _368  and  _370
REMARK  155  A    between atoms: _370  and  _371
REMARK  156  A    between atoms: _370  and  _373
REMARK  157  A    between atoms: _373  and  _374
REMARK  158  A    between atoms: _379  and  _381
REMARK  159  A    between atoms: _381  and  _382
REMARK  160  A    between atoms: _381  and  _384
REMARK  161  A    between atoms: _384  and  _385
REMARK  162  A    between atoms: _388  and  _390
REMARK  163  A    between atoms: _390  and  _391
REMARK  164  A    between atoms: _390  and  _393
REMARK  165  A    between atoms: _393  and  _394
REMARK  166  A    between atoms: _394  and  _395
REMARK  167  A    between atoms: _395  and  _396
REMARK  168  A    between atoms: _396  and  _397
REMARK  169  A    between atoms: _402  and  _403
REMARK  170  A    between atoms: _408  and  _410
REMARK  171  A    between atoms: _410  and  _411
REMARK  172  A    between atoms: _410  and  _413
REMARK  173  A    between atoms: _413  and  _414
REMARK  174  A    between atoms: _414  and  _415
REMARK  175  A    between atoms: _418  and  _420
REMARK  176  A    between atoms: _420  and  _421
REMARK  177  A    between atoms: _420  and  _423
REMARK  178  A    between atoms: _423  and  _424
REMARK  179  A    between atoms: _429  and  _431
REMARK  180  A    between atoms: _431  and  _432
REMARK  181  A    between atoms: _431  and  _434
REMARK  182  A    between atoms: _434  and  _435
REMARK  183  A    between atoms: _438  and  _440
REMARK  184  A    between atoms: _440  and  _441
REMARK  185  A    between atoms: _440  and  _443
REMARK  186  A    between atoms: _443  and  _444
REMARK  187  A    between atoms: _447  and  _449
REMARK  188  A    between atoms: _449  and  _450
REMARK  189  A    between atoms: _449  and  _452
REMARK  190  A    between atoms: _452  and  _453
REMARK  191  A    between atoms: _456  and  _458
REMARK  192  A    between atoms: _458  and  _459
REMARK  193  A    between atoms: _458  and  _461
REMARK  194  A    between atoms: _461  and  _462
REMARK  195  A    between atoms: _465  and  _467
REMARK  196  A    between atoms: _467  and  _468
REMARK  197  A    between atoms: _467  and  _470
REMARK  198  A    between atoms: _470  and  _471
REMARK  199  A    between atoms: _471  and  _472
REMARK  200  A    between atoms: _472  and  _473
REMARK  201  A    between atoms: _473  and  _474
REMARK  202  A    between atoms: _478  and  _480
REMARK  203  A    between atoms: _480  and  _481
REMARK  204  A    between atoms: _480  and  _483
REMARK  205  A    between atoms: _483  and  _484
REMARK  206  A    between atoms: _487  and  _489
REMARK  207  A    between atoms: _489  and  _490
REMARK  208  A    between atoms: _489  and  _492
REMARK  209  A    between atoms: _492  and  _493
REMARK  210  A    between atoms: _495  and  _497
REMARK  211  A    between atoms: _497  and  _498
REMARK  212  A    between atoms: _497  and  _500
REMARK  213  A    between atoms: _500  and  _501
REMARK  214  A    between atoms: _504  and  _506
REMARK  215  A    between atoms: _506  and  _507
REMARK  216  A    between atoms: _506  and  _509
REMARK  217  A    between atoms: _509  and  _510
REMARK  218  A    between atoms: _516  and  _518
REMARK  219  A    between atoms: _518  and  _519
REMARK  220  A    between atoms: _521  and  _523
REMARK  221  A    between atoms: _523  and  _524
REMARK  222  A    between atoms: _523  and  _526
REMARK  223  A    between atoms: _526  and  _527
REMARK                            x       y       z     vdW  Elec       q    Type
REMARK                         _______ _______ _______ _____ _____    ______ ____
ROOT
ATOM      1  O   HOH     1       6.797   1.253   6.352  0.00  0.00    +0.000 OA
ENDROOT
TORSDOF 0
REMARK  Name = ../refined-set-2016/1nvq/1nvq_pocket.pdb
REMARK  223 active torsions:
REMARK  status: ('A' for Active; 'I' for Inactive)
REMARK    1  A    between atoms: _1  and  _3
REMARK    2  A    between atoms: _3  and  _4
REMARK    3  A    between atoms: _3  and  _6
REMARK    4  A    between atoms: _6  and  _7
REMARK    5  A    between atoms: _7  and  _8
REMARK    6  A    between atoms: _13  and  _15
REMARK    7  A    between atoms: _15  and  _16
REMARK    8  A    between atoms: _15  and  _18
REMARK    9  A    between atoms: _18  and  _19
REMARK   10  A    between atoms: _22  and  _24
REMARK   11  A    between atoms: _24  and  _25
REMARK   12  A    between atoms: _24  and  _27
REMARK   13  A    between atoms: _27  and  _28
REMARK   14  A    between atoms: _31  and  _33
REMARK   15  A    between atoms: _33  and  _34
REMARK   16  A    between atoms: _36  and  _38
REMARK   17  A    between atoms: _38  and  _39
REMARK   18  A    between atoms: _38  and  _41
REMARK   19  A    between atoms: _41  and  _42
REMARK   20  A    between atoms: _42  and  _43
REMARK   21  A    between atoms: _46  and  _48
REMARK   22  A    between atoms: _48  and  _49
REMARK   23  A    between atoms: _51  and  _53
REMARK   24  A    between atoms: _53  and  _54
REMARK   25  A    between atoms: _53  and  _56
REMARK   26  A    between atoms: _56  and  _57
REMARK   27  A    between atoms: _62  and  _63
REMARK   28  A    between atoms: _65  and  _67
REMARK   29  A    between atoms: _67  and  _68
REMARK   30  A    between atoms: _70  and  _72
REMARK   31  A    between atoms: _72  and  _73
REMARK   32  A    between atoms: _72  and  _75
REMARK   33  A    between atoms: _75  and  _76
REMARK   34  A    between atoms: _76  and  _77
REMARK   35  A    between atoms: _80  and  _82
REMARK   36  A    between atoms: _82  and  _83
REMARK   37  A    between atoms: _82  and  _85
REMARK   38  A    between atoms: _88  and  _90
REMARK   39  A    between atoms: _90  and  _91
REMARK   40  A    between atoms: _90  and  _93
REMARK   41  A    between atoms: _93  and  _94
REMARK   42  A    between atoms: _94  and  _95
REMARK   43  A    between atoms: _100  and  _102
REMARK   44  A    between atoms: _102  and  _103
REMARK   45  A    between atoms: _102  and  _105
REMARK   46  A    between atoms: _105  and  _106
REMARK   47  A    between atoms: _109  and  _111
REMARK   48  A    between atoms: _111  and  _112
REMARK   49  A    between atoms: _115  and  _117
REMARK   50  A    between atoms: _117  and  _118
REMARK   51  A    between atoms: _121  and  _123
REMARK   52  A    between atoms: _123  and  _124
REMARK   53  A    between atoms: _123  and  _126
REMARK   54  A    between atoms: _129  and  _131
REMARK   55  A    between atoms: _131  and  _132
REMARK   56  A    between atoms: _135  and  _137
REMARK   57  A    between atoms: _137  and  _138
REMARK   58  A    between atoms: _137  and  _140
REMARK   59  A    between atoms: _143  and  _145
REMARK   60  A    between atoms: _145  and  _146
REMARK   61  A    between atoms: _145  and  _148
REMARK   62  A    between atoms: _148  and  _149
REMARK   63  A    between atoms: _149  and  _150
REMARK   64  A    between atoms: _150  and  _151
REMARK   65  A    between atoms: _151  and  _152
REMARK   66  A    between atoms: _156  and  _158
REMARK   67  A    between atoms: _158  and  _159
REMARK   68  A    between atoms: _158  and  _161
REMARK   69  A    between atoms: _161  and  _162
REMARK   70  A    between atoms: _165  and  _167
REMARK   71  A    between atoms: _167  and  _168
REMARK   72  A    between atoms: _167  and  _170
REMARK   73  A    between atoms: _173  and  _175
REMARK   74  A    between atoms: _175  and  _176
REMARK   75  A    between atoms: _175  and  _178
REMARK   76  A    between atoms: _178  and  _179
REMARK   77  A    between atoms: _179  and  _180
REMARK   78  A    between atoms: _183  and  _185
REMARK   79  A    between atoms: _185  and  _186
REMARK   80  A    between atoms: _185  and  _188
REMARK   81  A    between atoms: _188  and  _189
REMARK   82  A    between atoms: _194  and  _196
REMARK   83  A    between atoms: _196  and  _197
REMARK   84  A    between atoms: _196  and  _199
REMARK   85  A    between atoms: _202  and  _204
REMARK   86  A    between atoms: _204  and  _205
REMARK   87  A    between atoms: _204  and  _207
REMARK   88  A    between atoms: _210  and  _212
REMARK   89  A    between atoms: _212  and  _213
REMARK   90  A    between atoms: _212  and  _215
REMARK   91  A    between atoms: _215  and  _216
REMARK   92  A    between atoms: _216  and  _217
REMARK   93  A    between atoms: _217  and  _218
REMARK   94  A    between atoms: _218  and  _219
REMARK   95  A    between atoms: _223  and  _225
REMARK   96  A    between atoms: _225  and  _226
REMARK   97  A    between atoms: _225  and  _228
REMARK   98  A    between atoms: _228  and  _229
REMARK   99  A    between atoms: _235  and  _237
REMARK  100  A    between atoms: _237  and  _238
REMARK  101  A    between atoms: _237  and  _240
REMARK  102  A    between atoms: _240  and  _241
REMARK  103  A    between atoms: _246  and  _247
REMARK  104  A    between atoms: _249  and  _251
REMARK  105  A    between atoms: _251  and  _252
REMARK  106  A    between atoms: _251  and  _254
REMARK  107  A    between atoms: _254  and  _255
REMARK  108  A    between atoms: _258  and  _260
REMARK  109  A    between atoms: _260  and  _261
REMARK  110  A    between atoms: _260  and  _263
REMARK  111  A    between atoms: _263  and  _264
REMARK  112  A    between atoms: _270  and  _272
REMARK  113  A    between atoms: _272  and  _273
REMARK  114  A    between atoms: _272  and  _275
REMARK  115  A    between atoms: _275  and  _276
REMARK  116  A    between atoms: _279  and  _281
REMARK  117  A    between atoms: _281  and  _282
REMARK  118  A    between atoms: _281  and  _284
REMARK  119  A    between atoms: _284  and  _285
REMARK  120  A    between atoms: _285  and  _286
REMARK  121  A    between atoms: _289  and  _291
REMARK  122  A    between atoms: _291  and  _292
REMARK  123  A    between atoms: _291  and  _294
REMARK  124  A    between atoms: _294  and  _295
REMARK  125  A    between atoms: _300  and  _301
REMARK  126  A    between atoms: _303  and  _305
REMARK  127  A    between atoms: _305  and  _306
REMARK  128  A    between atoms: _305  and  _308
REMARK  129  A    between atoms: _310  and  _312
REMARK  130  A    between atoms: _312  and  _313
REMARK  131  A    between atoms: _312  and  _315
REMARK  132  A    between atoms: _315  and  _316
REMARK  133  A    between atoms: _318  and  _320
REMARK  134  A    between atoms: _320  and  _321
REMARK  135  A    between atoms: _323  and  _325
REMARK  136  A    between atoms: _325  and  _326
REMARK  137  A    between atoms: _328  and  _330
REMARK  138  A    between atoms: _330  and  _331
REMARK  139  A    between atoms: _330  and  _333
REMARK  140  A    between atoms: _333  and  _334
REMARK  141  A    between atoms: _334  and  _335
REMARK  142  A    between atoms: _338  and  _340
REMARK  143  A    between atoms: _340  and  _341
REMARK  144  A    between atoms: _340  and  _343
REMARK  145  A    between atoms: _343  and  _344
REMARK  146  A    between atoms: _347  and  _349
REMARK  147  A    between atoms: _349  and  _350
REMARK  148  A    between atoms: _349  and  _352
REMARK  149  A    between atoms: _352  and  _353
REMARK  150  A    between atoms: _359  and  _361
REMARK  151  A    between atoms: _361  and  _362
REMARK  152  A    between atoms: _361  and  _364
REMARK  153  A    between atoms: _364  and  _365
REMARK  154  A    between atoms: _368  and  _370
REMARK  155  A    between atoms: _370  and  _371
REMARK  156  A    between atoms: _370  and  _373
REMARK  157  A    between atoms: _373  and  _374
REMARK  158  A    between atoms: _379  and  _381
REMARK  159  A    between atoms: _381  and  _382
REMARK  160  A    between atoms: _381  and  _384
REMARK  161  A    between atoms: _384  and  _385
REMARK  162  A    between atoms: _388  and  _390
REMARK  163  A    between atoms: _390  and  _391
REMARK  164  A    between atoms: _390  and  _393
REMARK  165  A    between atoms: _393  and  _394
REMARK  166  A    between atoms: _394  and  _395
REMARK  167  A    between atoms: _395  and  _396
REMARK  168  A    between atoms: _396  and  _397
REMARK  169  A    between atoms: _402  and  _403
REMARK  170  A    between atoms: _408  and  _410
REMARK  171  A    between atoms: _410  and  _411
REMARK  172  A    between atoms: _410  and  _413
REMARK  173  A    between atoms: _413  and  _414
REMARK  174  A    between atoms: _414  and  _415
REMARK  175  A    between atoms: _418  and  _420
REMARK  176  A    between atoms: _420  and  _421
REMARK  177  A    between atoms: _420  and  _423
REMARK  178  A    between atoms: _423  and  _424
REMARK  179  A    between atoms: _429  and  _431
REMARK  180  A    between atoms: _431  and  _432
REMARK  181  A    between atoms: _431  and  _434
REMARK  182  A    between atoms: _434  and  _435
REMARK  183  A    between atoms: _438  and  _440
REMARK  184  A    between atoms: _440  and  _441
REMARK  185  A    between atoms: _440  and  _443
REMARK  186  A    between atoms: _443  and  _444
REMARK  187  A    between atoms: _447  and  _449
REMARK  188  A    between atoms: _449  and  _450
REMARK  189  A    between atoms: _449  and  _452
REMARK  190  A    between atoms: _452  and  _453
REMARK  191  A    between atoms: _456  and  _458
REMARK  192  A    between atoms: _458  and  _459
REMARK  193  A    between atoms: _458  and  _461
REMARK  194  A    between atoms: _461  and  _462
REMARK  195  A    between atoms: _465  and  _467
REMARK  196  A    between atoms: _467  and  _468
REMARK  197  A    between atoms: _467  and  _470
REMARK  198  A    between atoms: _470  and  _471
REMARK  199  A    between atoms: _471  and  _472
REMARK  200  A    between atoms: _472  and  _473
REMARK  201  A    between atoms: _473  and  _474
REMARK  202  A    between atoms: _478  and  _480
REMARK  203  A    between atoms: _480  and  _481
REMARK  204  A    between atoms: _480  and  _483
REMARK  205  A    between atoms: _483  and  _484
REMARK  206  A    between atoms: _487  and  _489
REMARK  207  A    between atoms: _489  and  _490
REMARK  208  A    between atoms: _489  and  _492
REMARK  209  A    between atoms: _492  and  _493
REMARK  210  A    between atoms: _495  and  _497
REMARK  211  A    between atoms: _497  and  _498
REMARK  212  A    between atoms: _497  and  _500
REMARK  213  A    between atoms: _500  and  _501
REMARK  214  A    between atoms: _504  and  _506
REMARK  215  A    between atoms: _506  and  _507
REMARK  216  A    between atoms: _506  and  _509
REMARK  217  A    between atoms: _509  and  _510
REMARK  218  A    between atoms: _516  and  _518
REMARK  219  A    between atoms: _518  and  _519
REMARK  220  A    between atoms: _521  and  _523
REMARK  221  A    between atoms: _523  and  _524
REMARK  222  A    between atoms: _523  and  _526
REMARK  223  A    between atoms: _526  and  _527
REMARK                            x       y       z     vdW  Elec       q    Type
REMARK                         _______ _______ _______ _____ _____    ______ ____
ROOT
ATOM      1  O   HOH     1      -1.714  10.437  26.096  0.00  0.00    +0.000 OA
ENDROOT
TORSDOF 0
REMARK  Name = ../refined-set-2016/1nvq/1nvq_pocket.pdb
REMARK  223 active torsions:
REMARK  status: ('A' for Active; 'I' for Inactive)
REMARK    1  A    between atoms: _1  and  _3
REMARK    2  A    between atoms: _3  and  _4
REMARK    3  A    between atoms: _3  and  _6
REMARK    4  A    between atoms: _6  and  _7
REMARK    5  A    between atoms: _7  and  _8
REMARK    6  A    between atoms: _13  and  _15
REMARK    7  A    between atoms: _15  and  _16
REMARK    8  A    between atoms: _15  and  _18
REMARK    9  A    between atoms: _18  and  _19
REMARK   10  A    between atoms: _22  and  _24
REMARK   11  A    between atoms: _24  and  _25
REMARK   12  A    between atoms: _24  and  _27
REMARK   13  A    between atoms: _27  and  _28
REMARK   14  A    between atoms: _31  and  _33
REMARK   15  A    between atoms: _33  and  _34
REMARK   16  A    between atoms: _36  and  _38
REMARK   17  A    between atoms: _38  and  _39
REMARK   18  A    between atoms: _38  and  _41
REMARK   19  A    between atoms: _41  and  _42
REMARK   20  A    between atoms: _42  and  _43
REMARK   21  A    between atoms: _46  and  _48
REMARK   22  A    between atoms: _48  and  _49
REMARK   23  A    between atoms: _51  and  _53
REMARK   24  A    between atoms: _53  and  _54
REMARK   25  A    between atoms: _53  and  _56
REMARK   26  A    between atoms: _56  and  _57
REMARK   27  A    between atoms: _62  and  _63
REMARK   28  A    between atoms: _65  and  _67
REMARK   29  A    between atoms: _67  and  _68
REMARK   30  A    between atoms: _70  and  _72
REMARK   31  A    between atoms: _72  and  _73
REMARK   32  A    between atoms: _72  and  _75
REMARK   33  A    between atoms: _75  and  _76
REMARK   34  A    between atoms: _76  and  _77
REMARK   35  A    between atoms: _80  and  _82
REMARK   36  A    between atoms: _82  and  _83
REMARK   37  A    between atoms: _82  and  _85
REMARK   38  A    between atoms: _88  and  _90
REMARK   39  A    between atoms: _90  and  _91
REMARK   40  A    between atoms: _90  and  _93
REMARK   41  A    between atoms: _93  and  _94
REMARK   42  A    between atoms: _94  and  _95
REMARK   43  A    between atoms: _100  and  _102
REMARK   44  A    between atoms: _102  and  _103
REMARK   45  A    between atoms: _102  and  _105
REMARK   46  A    between atoms: _105  and  _106
REMARK   47  A    between atoms: _109  and  _111
REMARK   48  A    between atoms: _111  and  _112
REMARK   49  A    between atoms: _115  and  _117
REMARK   50  A    between atoms: _117  and  _118
REMARK   51  A    between atoms: _121  and  _123
REMARK   52  A    between atoms: _123  and  _124
REMARK   53  A    between atoms: _123  and  _126
REMARK   54  A    between atoms: _129  and  _131
REMARK   55  A    between atoms: _131  and  _132
REMARK   56  A    between atoms: _135  and  _137
REMARK   57  A    between atoms: _137  and  _138
REMARK   58  A    between atoms: _137  and  _140
REMARK   59  A    between atoms: _143  and  _145
REMARK   60  A    between atoms: _145  and  _146
REMARK   61  A    between atoms: _145  and  _148
REMARK   62  A    between atoms: _148  and  _149
REMARK   63  A    between atoms: _149  and  _150
REMARK   64  A    between atoms: _150  and  _151
REMARK   65  A    between atoms: _151  and  _152
REMARK   66  A    between atoms: _156  and  _158
REMARK   67  A    between atoms: _158  and  _159
REMARK   68  A    between atoms: _158  and  _161
REMARK   69  A    between atoms: _161  and  _162
REMARK   70  A    between atoms: _165  and  _167
REMARK   71  A    between atoms: _167  and  _168
REMARK   72  A    between atoms: _167  and  _170
REMARK   73  A    between atoms: _173  and  _175
REMARK   74  A    between atoms: _175  and  _176
REMARK   75  A    between atoms: _175  and  _178
REMARK   76  A    between atoms: _178  and  _179
REMARK   77  A    between atoms: _179  and  _180
REMARK   78  A    between atoms: _183  and  _185
REMARK   79  A    between atoms: _185  and  _186
REMARK   80  A    between atoms: _185  and  _188
REMARK   81  A    between atoms: _188  and  _189
REMARK   82  A    between atoms: _194  and  _196
REMARK   83  A    between atoms: _196  and  _197
REMARK   84  A    between atoms: _196  and  _199
REMARK   85  A    between atoms: _202  and  _204
REMARK   86  A    between atoms: _204  and  _205
REMARK   87  A    between atoms: _204  and  _207
REMARK   88  A    between atoms: _210  and  _212
REMARK   89  A    between atoms: _212  and  _213
REMARK   90  A    between atoms: _212  and  _215
REMARK   91  A    between atoms: _215  and  _216
REMARK   92  A    between atoms: _216  and  _217
REMARK   93  A    between atoms: _217  and  _218
REMARK   94  A    between atoms: _218  and  _219
REMARK   95  A    between atoms: _223  and  _225
REMARK   96  A    between atoms: _225  and  _226
REMARK   97  A    between atoms: _225  and  _228
REMARK   98  A    between atoms: _228  and  _229
REMARK   99  A    between atoms: _235  and  _237
REMARK  100  A    between atoms: _237  and  _238
REMARK  101  A    between atoms: _237  and  _240
REMARK  102  A    between atoms: _240  and  _241
REMARK  103  A    between atoms: _246  and  _247
REMARK  104  A    between atoms: _249  and  _251
REMARK  105  A    between atoms: _251  and  _252
REMARK  106  A    between atoms: _251  and  _254
REMARK  107  A    between atoms: _254  and  _255
REMARK  108  A    between atoms: _258  and  _260
REMARK  109  A    between atoms: _260  and  _261
REMARK  110  A    between atoms: _260  and  _263
REMARK  111  A    between atoms: _263  and  _264
REMARK  112  A    between atoms: _270  and  _272
REMARK  113  A    between atoms: _272  and  _273
REMARK  114  A    between atoms: _272  and  _275
REMARK  115  A    between atoms: _275  and  _276
REMARK  116  A    between atoms: _279  and  _281
REMARK  117  A    between atoms: _281  and  _282
REMARK  118  A    between atoms: _281  and  _284
REMARK  119  A    between atoms: _284  and  _285
REMARK  120  A    between atoms: _285  and  _286
REMARK  121  A    between atoms: _289  and  _291
REMARK  122  A    between atoms: _291  and  _292
REMARK  123  A    between atoms: _291  and  _294
REMARK  124  A    between atoms: _294  and  _295
REMARK  125  A    between atoms: _300  and  _301
REMARK  126  A    between atoms: _303  and  _305
REMARK  127  A    between atoms: _305  and  _306
REMARK  128  A    between atoms: _305  and  _308
REMARK  129  A    between atoms: _310  and  _312
REMARK  130  A    between atoms: _312  and  _313
REMARK  131  A    between atoms: _312  and  _315
REMARK  132  A    between atoms: _315  and  _316
REMARK  133  A    between atoms: _318  and  _320
REMARK  134  A    between atoms: _320  and  _321
REMARK  135  A    between atoms: _323  and  _325
REMARK  136  A    between atoms: _325  and  _326
REMARK  137  A    between atoms: _328  and  _330
REMARK  138  A    between atoms: _330  and  _331
REMARK  139  A    between atoms: _330  and  _333
REMARK  140  A    between atoms: _333  and  _334
REMARK  141  A    between atoms: _334  and  _335
REMARK  142  A    between atoms: _338  and  _340
REMARK  143  A    between atoms: _340  and  _341
REMARK  144  A    between atoms: _340  and  _343
REMARK  145  A    between atoms: _343  and  _344
REMARK  146  A    between atoms: _347  and  _349
REMARK  147  A    between atoms: _349  and  _350
REMARK  148  A    between atoms: _349  and  _352
REMARK  149  A    between atoms: _352  and  _353
REMARK  150  A    between atoms: _359  and  _361
REMARK  151  A    between atoms: _361  and  _362
REMARK  152  A    between atoms: _361  and  _364
REMARK  153  A    between atoms: _364  and  _365
REMARK  154  A    between atoms: _368  and  _370
REMARK  155  A    between atoms: _370  and  _371
REMARK  156  A    between atoms: _370  and  _373
REMARK  157  A    between atoms: _373  and  _374
REMARK  158  A    between atoms: _379  and  _381
REMARK  159  A    between atoms: _381  and  _382
REMARK  160  A    between atoms: _381  and  _384
REMARK  161  A    between atoms: _384  and  _385
REMARK  162  A    between atoms: _388  and  _390
REMARK  163  A    between atoms: _390  and  _391
REMARK  164  A    between atoms: _390  and  _393
REMARK  165  A    between atoms: _393  and  _394
REMARK  166  A    between atoms: _394  and  _395
REMARK  167  A    between atoms: _395  and  _396
REMARK  168  A    between atoms: _396  and  _397
REMARK  169  A    between atoms: _402  and  _403
REMARK  170  A    between atoms: _408  and  _410
REMARK  171  A    between atoms: _410  and  _411
REMARK  172  A    between atoms: _410  and  _413
REMARK  173  A    between atoms: _413  and  _414
REMARK  174  A    between atoms: _414  and  _415
REMARK  175  A    between atoms: _418  and  _420
REMARK  176  A    between atoms: _420  and  _421
REMARK  177  A    between atoms: _420  and  _423
REMARK  178  A    between atoms: _423  and  _424
REMARK  179  A    between atoms: _429  and  _431
REMARK  180  A    between atoms: _431  and  _432
REMARK  181  A    between atoms: _431  and  _434
REMARK  182  A    between atoms: _434  and  _435
REMARK  183  A    between atoms: _438  and  _440
REMARK  184  A    between atoms: _440  and  _441
REMARK  185  A    between atoms: _440  and  _443
REMARK  186  A    between atoms: _443  and  _444
REMARK  187  A    between atoms: _447  and  _449
REMARK  188  A    between atoms: _449  and  _450
REMARK  189  A    between atoms: _449  and  _452
REMARK  190  A    between atoms: _452  and  _453
REMARK  191  A    between atoms: _456  and  _458
REMARK  192  A    between atoms: _458  and  _459
REMARK  193  A    between atoms: _458  and  _461
REMARK  194  A    between atoms: _461  and  _462
REMARK  195  A    between atoms: _465  and  _467
REMARK  196  A    between atoms: _467  and  _468
REMARK  197  A    between atoms: _467  and  _470
REMARK  198  A    between atoms: _470  and  _471
REMARK  199  A    between atoms: _471  and  _472
REMARK  200  A    between atoms: _472  and  _473
REMARK  201  A    between atoms: _473  and  _474
REMARK  202  A    between atoms: _478  and  _480
REMARK  203  A    between atoms: _480  and  _481
REMARK  204  A    between atoms: _480  and  _483
REMARK  205  A    between atoms: _483  and  _484
REMARK  206  A    between atoms: _487  and  _489
REMARK  207  A    between atoms: _489  and  _490
REMARK  208  A    between atoms: _489  and  _492
REMARK  209  A    between atoms: _492  and  _493
REMARK  210  A    between atoms: _495  and  _497
REMARK  211  A    between atoms: _497  and  _498
REMARK  212  A    between atoms: _497  and  _500
REMARK  213  A    between atoms: _500  and  _501
REMARK  214  A    between atoms: _504  and  _506
REMARK  215  A    between atoms: _506  and  _507
REMARK  216  A    between atoms: _506  and  _509
REMARK  217  A    between atoms: _509  and  _510
REMARK  218  A    between atoms: _516  and  _518
REMARK  219  A    between atoms: _518  and  _519
REMARK  220  A    between atoms: _521  and  _523
REMARK  221  A    between atoms: _523  and  _524
REMARK  222  A    between atoms: _523  and  _526
REMARK  223  A    between atoms: _526  and  _527
REMARK                            x       y       z     vdW  Elec       q    Type
REMARK                         _______ _______ _______ _____ _____    ______ ____
ROOT
ATOM      1  O   HOH     1      10.171   2.121   9.638  0.00  0.00    +0.000 OA
ENDROOT
TORSDOF 0
REMARK  Name = ../refined-set-2016/1nvq/1nvq_pocket.pdb
REMARK  223 active torsions:
REMARK  status: ('A' for Active; 'I' for Inactive)
REMARK    1  A    between atoms: _1  and  _3
REMARK    2  A    between atoms: _3  and  _4
REMARK    3  A    between atoms: _3  and  _6
REMARK    4  A    between atoms: _6  and  _7
REMARK    5  A    between atoms: _7  and  _8
REMARK    6  A    between atoms: _13  and  _15
REMARK    7  A    between atoms: _15  and  _16
REMARK    8  A    between atoms: _15  and  _18
REMARK    9  A    between atoms: _18  and  _19
REMARK   10  A    between atoms: _22  and  _24
REMARK   11  A    between atoms: _24  and  _25
REMARK   12  A    between atoms: _24  and  _27
REMARK   13  A    between atoms: _27  and  _28
REMARK   14  A    between atoms: _31  and  _33
REMARK   15  A    between atoms: _33  and  _34
REMARK   16  A    between atoms: _36  and  _38
REMARK   17  A    between atoms: _38  and  _39
REMARK   18  A    between atoms: _38  and  _41
REMARK   19  A    between atoms: _41  and  _42
REMARK   20  A    between atoms: _42  and  _43
REMARK   21  A    between atoms: _46  and  _48
REMARK   22  A    between atoms: _48  and  _49
REMARK   23  A    between atoms: _51  and  _53
REMARK   24  A    between atoms: _53  and  _54
REMARK   25  A    between atoms: _53  and  _56
REMARK   26  A    between atoms: _56  and  _57
REMARK   27  A    between atoms: _62  and  _63
REMARK   28  A    between atoms: _65  and  _67
REMARK   29  A    between atoms: _67  and  _68
REMARK   30  A    between atoms: _70  and  _72
REMARK   31  A    between atoms: _72  and  _73
REMARK   32  A    between atoms: _72  and  _75
REMARK   33  A    between atoms: _75  and  _76
REMARK   34  A    between atoms: _76  and  _77
REMARK   35  A    between atoms: _80  and  _82
REMARK   36  A    between atoms: _82  and  _83
REMARK   37  A    between atoms: _82  and  _85
REMARK   38  A    between atoms: _88  and  _90
REMARK   39  A    between atoms: _90  and  _91
REMARK   40  A    between atoms: _90  and  _93
REMARK   41  A    between atoms: _93  and  _94
REMARK   42  A    between atoms: _94  and  _95
REMARK   43  A    between atoms: _100  and  _102
REMARK   44  A    between atoms: _102  and  _103
REMARK   45  A    between atoms: _102  and  _105
REMARK   46  A    between atoms: _105  and  _106
REMARK   47  A    between atoms: _109  and  _111
REMARK   48  A    between atoms: _111  and  _112
REMARK   49  A    between atoms: _115  and  _117
REMARK   50  A    between atoms: _117  and  _118
REMARK   51  A    between atoms: _121  and  _123
REMARK   52  A    between atoms: _123  and  _124
REMARK   53  A    between atoms: _123  and  _126
REMARK   54  A    between atoms: _129  and  _131
REMARK   55  A    between atoms: _131  and  _132
REMARK   56  A    between atoms: _135  and  _137
REMARK   57  A    between atoms: _137  and  _138
REMARK   58  A    between atoms: _137  and  _140
REMARK   59  A    between atoms: _143  and  _145
REMARK   60  A    between atoms: _145  and  _146
REMARK   61  A    between atoms: _145  and  _148
REMARK   62  A    between atoms: _148  and  _149
REMARK   63  A    between atoms: _149  and  _150
REMARK   64  A    between atoms: _150  and  _151
REMARK   65  A    between atoms: _151  and  _152
REMARK   66  A    between atoms: _156  and  _158
REMARK   67  A    between atoms: _158  and  _159
REMARK   68  A    between atoms: _158  and  _161
REMARK   69  A    between atoms: _161  and  _162
REMARK   70  A    between atoms: _165  and  _167
REMARK   71  A    between atoms: _167  and  _168
REMARK   72  A    between atoms: _167  and  _170
REMARK   73  A    between atoms: _173  and  _175
REMARK   74  A    between atoms: _175  and  _176
REMARK   75  A    between atoms: _175  and  _178
REMARK   76  A    between atoms: _178  and  _179
REMARK   77  A    between atoms: _179  and  _180
REMARK   78  A    between atoms: _183  and  _185
REMARK   79  A    between atoms: _185  and  _186
REMARK   80  A    between atoms: _185  and  _188
REMARK   81  A    between atoms: _188  and  _189
REMARK   82  A    between atoms: _194  and  _196
REMARK   83  A    between atoms: _196  and  _197
REMARK   84  A    between atoms: _196  and  _199
REMARK   85  A    between atoms: _202  and  _204
REMARK   86  A    between atoms: _204  and  _205
REMARK   87  A    between atoms: _204  and  _207
REMARK   88  A    between atoms: _210  and  _212
REMARK   89  A    between atoms: _212  and  _213
REMARK   90  A    between atoms: _212  and  _215
REMARK   91  A    between atoms: _215  and  _216
REMARK   92  A    between atoms: _216  and  _217
REMARK   93  A    between atoms: _217  and  _218
REMARK   94  A    between atoms: _218  and  _219
REMARK   95  A    between atoms: _223  and  _225
REMARK   96  A    between atoms: _225  and  _226
REMARK   97  A    between atoms: _225  and  _228
REMARK   98  A    between atoms: _228  and  _229
REMARK   99  A    between atoms: _235  and  _237
REMARK  100  A    between atoms: _237  and  _238
REMARK  101  A    between atoms: _237  and  _240
REMARK  102  A    between atoms: _240  and  _241
REMARK  103  A    between atoms: _246  and  _247
REMARK  104  A    between atoms: _249  and  _251
REMARK  105  A    between atoms: _251  and  _252
REMARK  106  A    between atoms: _251  and  _254
REMARK  107  A    between atoms: _254  and  _255
REMARK  108  A    between atoms: _258  and  _260
REMARK  109  A    between atoms: _260  and  _261
REMARK  110  A    between atoms: _260  and  _263
REMARK  111  A    between atoms: _263  and  _264
REMARK  112  A    between atoms: _270  and  _272
REMARK  113  A    between atoms: _272  and  _273
REMARK  114  A    between atoms: _272  and  _275
REMARK  115  A    between atoms: _275  and  _276
REMARK  116  A    between atoms: _279  and  _281
REMARK  117  A    between atoms: _281  and  _282
REMARK  118  A    between atoms: _281  and  _284
REMARK  119  A    between atoms: _284  and  _285
REMARK  120  A    between atoms: _285  and  _286
REMARK  121  A    between atoms: _289  and  _291
REMARK  122  A    between atoms: _291  and  _292
REMARK  123  A    between atoms: _291  and  _294
REMARK  124  A    between atoms: _294  and  _295
REMARK  125  A    between atoms: _300  and  _301
REMARK  126  A    between atoms: _303  and  _305
REMARK  127  A    between atoms: _305  and  _306
REMARK  128  A    between atoms: _305  and  _308
REMARK  129  A    between atoms: _310  and  _312
REMARK  130  A    between atoms: _312  and  _313
REMARK  131  A    between atoms: _312  and  _315
REMARK  132  A    between atoms: _315  and  _316
REMARK  133  A    between atoms: _318  and  _320
REMARK  134  A    between atoms: _320  and  _321
REMARK  135  A    between atoms: _323  and  _325
REMARK  136  A    between atoms: _325  and  _326
REMARK  137  A    between atoms: _328  and  _330
REMARK  138  A    between atoms: _330  and  _331
REMARK  139  A    between atoms: _330  and  _333
REMARK  140  A    between atoms: _333  and  _334
REMARK  141  A    between atoms: _334  and  _335
REMARK  142  A    between atoms: _338  and  _340
REMARK  143  A    between atoms: _340  and  _341
REMARK  144  A    between atoms: _340  and  _343
REMARK  145  A    between atoms: _343  and  _344
REMARK  146  A    between atoms: _347  and  _349
REMARK  147  A    between atoms: _349  and  _350
REMARK  148  A    between atoms: _349  and  _352
REMARK  149  A    between atoms: _352  and  _353
REMARK  150  A    between atoms: _359  and  _361
REMARK  151  A    between atoms: _361  and  _362
REMARK  152  A    between atoms: _361  and  _364
REMARK  153  A    between atoms: _364  and  _365
REMARK  154  A    between atoms: _368  and  _370
REMARK  155  A    between atoms: _370  and  _371
REMARK  156  A    between atoms: _370  and  _373
REMARK  157  A    between atoms: _373  and  _374
REMARK  158  A    between atoms: _379  and  _381
REMARK  159  A    between atoms: _381  and  _382
REMARK  160  A    between atoms: _381  and  _384
REMARK  161  A    between atoms: _384  and  _385
REMARK  162  A    between atoms: _388  and  _390
REMARK  163  A    between atoms: _390  and  _391
REMARK  164  A    between atoms: _390  and  _393
REMARK  165  A    between atoms: _393  and  _394
REMARK  166  A    between atoms: _394  and  _395
REMARK  167  A    between atoms: _395  and  _396
REMARK  168  A    between atoms: _396  and  _397
REMARK  169  A    between atoms: _402  and  _403
REMARK  170  A    between atoms: _408  and  _410
REMARK  171  A    between atoms: _410  and  _411
REMARK  172  A    between atoms: _410  and  _413
REMARK  173  A    between atoms: _413  and  _414
REMARK  174  A    between atoms: _414  and  _415
REMARK  175  A    between atoms: _418  and  _420
REMARK  176  A    between atoms: _420  and  _421
REMARK  177  A    between atoms: _420  and  _423
REMARK  178  A    between atoms: _423  and  _424
REMARK  179  A    between atoms: _429  and  _431
REMARK  180  A    between atoms: _431  and  _432
REMARK  181  A    between atoms: _431  and  _434
REMARK  182  A    between atoms: _434  and  _435
REMARK  183  A    between atoms: _438  and  _440
REMARK  184  A    between atoms: _440  and  _441
REMARK  185  A    between atoms: _440  and  _443
REMARK  186  A    between atoms: _443  and  _444
REMARK  187  A    between atoms: _447  and  _449
REMARK  188  A    between atoms: _449  and  _450
REMARK  189  A    between atoms: _449  and  _452
REMARK  190  A    between atoms: _452  and  _453
REMARK  191  A    between atoms: _456  and  _458
REMARK  192  A    between atoms: _458  and  _459
REMARK  193  A    between atoms: _458  and  _461
REMARK  194  A    between atoms: _461  and  _462
REMARK  195  A    between atoms: _465  and  _467
REMARK  196  A    between atoms: _467  and  _468
REMARK  197  A    between atoms: _467  and  _470
REMARK  198  A    between atoms: _470  and  _471
REMARK  199  A    between atoms: _471  and  _472
REMARK  200  A    between atoms: _472  and  _473
REMARK  201  A    between atoms: _473  and  _474
REMARK  202  A    between atoms: _478  and  _480
REMARK  203  A    between atoms: _480  and  _481
REMARK  204  A    between atoms: _480  and  _483
REMARK  205  A    between atoms: _483  and  _484
REMARK  206  A    between atoms: _487  and  _489
REMARK  207  A    between atoms: _489  and  _490
REMARK  208  A    between atoms: _489  and  _492
REMARK  209  A    between atoms: _492  and  _493
REMARK  210  A    between atoms: _495  and  _497
REMARK  211  A    between atoms: _497  and  _498
REMARK  212  A    between atoms: _497  and  _500
REMARK  213  A    between atoms: _500  and  _501
REMARK  214  A    between atoms: _504  and  _506
REMARK  215  A    between atoms: _506  and  _507
REMARK  216  A    between atoms: _506  and  _509
REMARK  217  A    between atoms: _509  and  _510
REMARK  218  A    between atoms: _516  and  _518
REMARK  219  A    between atoms: _518  and  _519
REMARK  220  A    between atoms: _521  and  _523
REMARK  221  A    between atoms: _523  and  _524
REMARK  222  A    between atoms: _523  and  _526
REMARK  223  A    between atoms: _526  and  _527
REMARK                            x       y       z     vdW  Elec       q    Type
REMARK                         _______ _______ _______ _____ _____    ______ ____
ROOT
ATOM      1  O   HOH     1      -2.035   4.839  17.382  0.00  0.00    +0.000 OA
ENDROOT
TORSDOF 0
REMARK  Name = ../refined-set-2016/1nvq/1nvq_pocket.pdb
REMARK  223 active torsions:
REMARK  status: ('A' for Active; 'I' for Inactive)
REMARK    1  A    between atoms: _1  and  _3
REMARK    2  A    between atoms: _3  and  _4
REMARK    3  A    between atoms: _3  and  _6
REMARK    4  A    between atoms: _6  and  _7
REMARK    5  A    between atoms: _7  and  _8
REMARK    6  A    between atoms: _13  and  _15
REMARK    7  A    between atoms: _15  and  _16
REMARK    8  A    between atoms: _15  and  _18
REMARK    9  A    between atoms: _18  and  _19
REMARK   10  A    between atoms: _22  and  _24
REMARK   11  A    between atoms: _24  and  _25
REMARK   12  A    between atoms: _24  and  _27
REMARK   13  A    between atoms: _27  and  _28
REMARK   14  A    between atoms: _31  and  _33
REMARK   15  A    between atoms: _33  and  _34
REMARK   16  A    between atoms: _36  and  _38
REMARK   17  A    between atoms: _38  and  _39
REMARK   18  A    between atoms: _38  and  _41
REMARK   19  A    between atoms: _41  and  _42
REMARK   20  A    between atoms: _42  and  _43
REMARK   21  A    between atoms: _46  and  _48
REMARK   22  A    between atoms: _48  and  _49
REMARK   23  A    between atoms: _51  and  _53
REMARK   24  A    between atoms: _53  and  _54
REMARK   25  A    between atoms: _53  and  _56
REMARK   26  A    between atoms: _56  and  _57
REMARK   27  A    between atoms: _62  and  _63
REMARK   28  A    between atoms: _65  and  _67
REMARK   29  A    between atoms: _67  and  _68
REMARK   30  A    between atoms: _70  and  _72
REMARK   31  A    between atoms: _72  and  _73
REMARK   32  A    between atoms: _72  and  _75
REMARK   33  A    between atoms: _75  and  _76
REMARK   34  A    between atoms: _76  and  _77
REMARK   35  A    between atoms: _80  and  _82
REMARK   36  A    between atoms: _82  and  _83
REMARK   37  A    between atoms: _82  and  _85
REMARK   38  A    between atoms: _88  and  _90
REMARK   39  A    between atoms: _90  and  _91
REMARK   40  A    between atoms: _90  and  _93
REMARK   41  A    between atoms: _93  and  _94
REMARK   42  A    between atoms: _94  and  _95
REMARK   43  A    between atoms: _100  and  _102
REMARK   44  A    between atoms: _102  and  _103
REMARK   45  A    between atoms: _102  and  _105
REMARK   46  A    between atoms: _105  and  _106
REMARK   47  A    between atoms: _109  and  _111
REMARK   48  A    between atoms: _111  and  _112
REMARK   49  A    between atoms: _115  and  _117
REMARK   50  A    between atoms: _117  and  _118
REMARK   51  A    between atoms: _121  and  _123
REMARK   52  A    between atoms: _123  and  _124
REMARK   53  A    between atoms: _123  and  _126
REMARK   54  A    between atoms: _129  and  _131
REMARK   55  A    between atoms: _131  and  _132
REMARK   56  A    between atoms: _135  and  _137
REMARK   57  A    between atoms: _137  and  _138
REMARK   58  A    between atoms: _137  and  _140
REMARK   59  A    between atoms: _143  and  _145
REMARK   60  A    between atoms: _145  and  _146
REMARK   61  A    between atoms: _145  and  _148
REMARK   62  A    between atoms: _148  and  _149
REMARK   63  A    between atoms: _149  and  _150
REMARK   64  A    between atoms: _150  and  _151
REMARK   65  A    between atoms: _151  and  _152
REMARK   66  A    between atoms: _156  and  _158
REMARK   67  A    between atoms: _158  and  _159
REMARK   68  A    between atoms: _158  and  _161
REMARK   69  A    between atoms: _161  and  _162
REMARK   70  A    between atoms: _165  and  _167
REMARK   71  A    between atoms: _167  and  _168
REMARK   72  A    between atoms: _167  and  _170
REMARK   73  A    between atoms: _173  and  _175
REMARK   74  A    between atoms: _175  and  _176
REMARK   75  A    between atoms: _175  and  _178
REMARK   76  A    between atoms: _178  and  _179
REMARK   77  A    between atoms: _179  and  _180
REMARK   78  A    between atoms: _183  and  _185
REMARK   79  A    between atoms: _185  and  _186
REMARK   80  A    between atoms: _185  and  _188
REMARK   81  A    between atoms: _188  and  _189
REMARK   82  A    between atoms: _194  and  _196
REMARK   83  A    between atoms: _196  and  _197
REMARK   84  A    between atoms: _196  and  _199
REMARK   85  A    between atoms: _202  and  _204
REMARK   86  A    between atoms: _204  and  _205
REMARK   87  A    between atoms: _204  and  _207
REMARK   88  A    between atoms: _210  and  _212
REMARK   89  A    between atoms: _212  and  _213
REMARK   90  A    between atoms: _212  and  _215
REMARK   91  A    between atoms: _215  and  _216
REMARK   92  A    between atoms: _216  and  _217
REMARK   93  A    between atoms: _217  and  _218
REMARK   94  A    between atoms: _218  and  _219
REMARK   95  A    between atoms: _223  and  _225
REMARK   96  A    between atoms: _225  and  _226
REMARK   97  A    between atoms: _225  and  _228
REMARK   98  A    between atoms: _228  and  _229
REMARK   99  A    between atoms: _235  and  _237
REMARK  100  A    between atoms: _237  and  _238
REMARK  101  A    between atoms: _237  and  _240
REMARK  102  A    between atoms: _240  and  _241
REMARK  103  A    between atoms: _246  and  _247
REMARK  104  A    between atoms: _249  and  _251
REMARK  105  A    between atoms: _251  and  _252
REMARK  106  A    between atoms: _251  and  _254
REMARK  107  A    between atoms: _254  and  _255
REMARK  108  A    between atoms: _258  and  _260
REMARK  109  A    between atoms: _260  and  _261
REMARK  110  A    between atoms: _260  and  _263
REMARK  111  A    between atoms: _263  and  _264
REMARK  112  A    between atoms: _270  and  _272
REMARK  113  A    between atoms: _272  and  _273
REMARK  114  A    between atoms: _272  and  _275
REMARK  115  A    between atoms: _275  and  _276
REMARK  116  A    between atoms: _279  and  _281
REMARK  117  A    between atoms: _281  and  _282
REMARK  118  A    between atoms: _281  and  _284
REMARK  119  A    between atoms: _284  and  _285
REMARK  120  A    between atoms: _285  and  _286
REMARK  121  A    between atoms: _289  and  _291
REMARK  122  A    between atoms: _291  and  _292
REMARK  123  A    between atoms: _291  and  _294
REMARK  124  A    between atoms: _294  and  _295
REMARK  125  A    between atoms: _300  and  _301
REMARK  126  A    between atoms: _303  and  _305
REMARK  127  A    between atoms: _305  and  _306
REMARK  128  A    between atoms: _305  and  _308
REMARK  129  A    between atoms: _310  and  _312
REMARK  130  A    between atoms: _312  and  _313
REMARK  131  A    between atoms: _312  and  _315
REMARK  132  A    between atoms: _315  and  _316
REMARK  133  A    between atoms: _318  and  _320
REMARK  134  A    between atoms: _320  and  _321
REMARK  135  A    between atoms: _323  and  _325
REMARK  136  A    between atoms: _325  and  _326
REMARK  137  A    between atoms: _328  and  _330
REMARK  138  A    between atoms: _330  and  _331
REMARK  139  A    between atoms: _330  and  _333
REMARK  140  A    between atoms: _333  and  _334
REMARK  141  A    between atoms: _334  and  _335
REMARK  142  A    between atoms: _338  and  _340
REMARK  143  A    between atoms: _340  and  _341
REMARK  144  A    between atoms: _340  and  _343
REMARK  145  A    between atoms: _343  and  _344
REMARK  146  A    between atoms: _347  and  _349
REMARK  147  A    between atoms: _349  and  _350
REMARK  148  A    between atoms: _349  and  _352
REMARK  149  A    between atoms: _352  and  _353
REMARK  150  A    between atoms: _359  and  _361
REMARK  151  A    between atoms: _361  and  _362
REMARK  152  A    between atoms: _361  and  _364
REMARK  153  A    between atoms: _364  and  _365
REMARK  154  A    between atoms: _368  and  _370
REMARK  155  A    between atoms: _370  and  _371
REMARK  156  A    between atoms: _370  and  _373
REMARK  157  A    between atoms: _373  and  _374
REMARK  158  A    between atoms: _379  and  _381
REMARK  159  A    between atoms: _381  and  _382
REMARK  160  A    between atoms: _381  and  _384
REMARK  161  A    between atoms: _384  and  _385
REMARK  162  A    between atoms: _388  and  _390
REMARK  163  A    between atoms: _390  and  _391
REMARK  164  A    between atoms: _390  and  _393
REMARK  165  A    between atoms: _393  and  _394
REMARK  166  A    between atoms: _394  and  _395
REMARK  167  A    between atoms: _395  and  _396
REMARK  168  A    between atoms: _396  and  _397
REMARK  169  A    between atoms: _402  and  _403
REMARK  170  A    between atoms: _408  and  _410
REMARK  171  A    between atoms: _410  and  _411
REMARK  172  A    between atoms: _410  and  _413
REMARK  173  A    between atoms: _413  and  _414
REMARK  174  A    between atoms: _414  and  _415
REMARK  175  A    between atoms: _418  and  _420
REMARK  176  A    between atoms: _420  and  _421
REMARK  177  A    between atoms: _420  and  _423
REMARK  178  A    between atoms: _423  and  _424
REMARK  179  A    between atoms: _429  and  _431
REMARK  180  A    between atoms: _431  and  _432
REMARK  181  A    between atoms: _431  and  _434
REMARK  182  A    between atoms: _434  and  _435
REMARK  183  A    between atoms: _438  and  _440
REMARK  184  A    between atoms: _440  and  _441
REMARK  185  A    between atoms: _440  and  _443
REMARK  186  A    between atoms: _443  and  _444
REMARK  187  A    between atoms: _447  and  _449
REMARK  188  A    between atoms: _449  and  _450
REMARK  189  A    between atoms: _449  and  _452
REMARK  190  A    between atoms: _452  and  _453
REMARK  191  A    between atoms: _456  and  _458
REMARK  192  A    between atoms: _458  and  _459
REMARK  193  A    between atoms: _458  and  _461
REMARK  194  A    between atoms: _461  and  _462
REMARK  195  A    between atoms: _465  and  _467
REMARK  196  A    between atoms: _467  and  _468
REMARK  197  A    between atoms: _467  and  _470
REMARK  198  A    between atoms: _470  and  _471
REMARK  199  A    between atoms: _471  and  _472
REMARK  200  A    between atoms: _472  and  _473
REMARK  201  A    between atoms: _473  and  _474
REMARK  202  A    between atoms: _478  and  _480
REMARK  203  A    between atoms: _480  and  _481
REMARK  204  A    between atoms: _480  and  _483
REMARK  205  A    between atoms: _483  and  _484
REMARK  206  A    between atoms: _487  and  _489
REMARK  207  A    between atoms: _489  and  _490
REMARK  208  A    between atoms: _489  and  _492
REMARK  209  A    between atoms: _492  and  _493
REMARK  210  A    between atoms: _495  and  _497
REMARK  211  A    between atoms: _497  and  _498
REMARK  212  A    between atoms: _497  and  _500
REMARK  213  A    between atoms: _500  and  _501
REMARK  214  A    between atoms: _504  and  _506
REMARK  215  A    between atoms: _506  and  _507
REMARK  216  A    between atoms: _506  and  _509
REMARK  217  A    between atoms: _509  and  _510
REMARK  218  A    between atoms: _516  and  _518
REMARK  219  A    between atoms: _518  and  _519
REMARK  220  A    between atoms: _521  and  _523
REMARK  221  A    between atoms: _523  and  _524
REMARK  222  A    between atoms: _523  and  _526
REMARK  223  A    between atoms: _526  and  _527
REMARK                            x       y       z     vdW  Elec       q    Type
REMARK                         _______ _______ _______ _____ _____    ______ ____
ROOT
ATOM      1  O   HOH     1      -3.873   3.815  13.154  0.00  0.00    +0.000 OA
ENDROOT
TORSDOF 0
REMARK  Name = ../refined-set-2016/1nvq/1nvq_pocket.pdb
REMARK  223 active torsions:
REMARK  status: ('A' for Active; 'I' for Inactive)
REMARK    1  A    between atoms: _1  and  _3
REMARK    2  A    between atoms: _3  and  _4
REMARK    3  A    between atoms: _3  and  _6
REMARK    4  A    between atoms: _6  and  _7
REMARK    5  A    between atoms: _7  and  _8
REMARK    6  A    between atoms: _13  and  _15
REMARK    7  A    between atoms: _15  and  _16
REMARK    8  A    between atoms: _15  and  _18
REMARK    9  A    between atoms: _18  and  _19
REMARK   10  A    between atoms: _22  and  _24
REMARK   11  A    between atoms: _24  and  _25
REMARK   12  A    between atoms: _24  and  _27
REMARK   13  A    between atoms: _27  and  _28
REMARK   14  A    between atoms: _31  and  _33
REMARK   15  A    between atoms: _33  and  _34
REMARK   16  A    between atoms: _36  and  _38
REMARK   17  A    between atoms: _38  and  _39
REMARK   18  A    between atoms: _38  and  _41
REMARK   19  A    between atoms: _41  and  _42
REMARK   20  A    between atoms: _42  and  _43
REMARK   21  A    between atoms: _46  and  _48
REMARK   22  A    between atoms: _48  and  _49
REMARK   23  A    between atoms: _51  and  _53
REMARK   24  A    between atoms: _53  and  _54
REMARK   25  A    between atoms: _53  and  _56
REMARK   26  A    between atoms: _56  and  _57
REMARK   27  A    between atoms: _62  and  _63
REMARK   28  A    between atoms: _65  and  _67
REMARK   29  A    between atoms: _67  and  _68
REMARK   30  A    between atoms: _70  and  _72
REMARK   31  A    between atoms: _72  and  _73
REMARK   32  A    between atoms: _72  and  _75
REMARK   33  A    between atoms: _75  and  _76
REMARK   34  A    between atoms: _76  and  _77
REMARK   35  A    between atoms: _80  and  _82
REMARK   36  A    between atoms: _82  and  _83
REMARK   37  A    between atoms: _82  and  _85
REMARK   38  A    between atoms: _88  and  _90
REMARK   39  A    between atoms: _90  and  _91
REMARK   40  A    between atoms: _90  and  _93
REMARK   41  A    between atoms: _93  and  _94
REMARK   42  A    between atoms: _94  and  _95
REMARK   43  A    between atoms: _100  and  _102
REMARK   44  A    between atoms: _102  and  _103
REMARK   45  A    between atoms: _102  and  _105
REMARK   46  A    between atoms: _105  and  _106
REMARK   47  A    between atoms: _109  and  _111
REMARK   48  A    between atoms: _111  and  _112
REMARK   49  A    between atoms: _115  and  _117
REMARK   50  A    between atoms: _117  and  _118
REMARK   51  A    between atoms: _121  and  _123
REMARK   52  A    between atoms: _123  and  _124
REMARK   53  A    between atoms: _123  and  _126
REMARK   54  A    between atoms: _129  and  _131
REMARK   55  A    between atoms: _131  and  _132
REMARK   56  A    between atoms: _135  and  _137
REMARK   57  A    between atoms: _137  and  _138
REMARK   58  A    between atoms: _137  and  _140
REMARK   59  A    between atoms: _143  and  _145
REMARK   60  A    between atoms: _145  and  _146
REMARK   61  A    between atoms: _145  and  _148
REMARK   62  A    between atoms: _148  and  _149
REMARK   63  A    between atoms: _149  and  _150
REMARK   64  A    between atoms: _150  and  _151
REMARK   65  A    between atoms: _151  and  _152
REMARK   66  A    between atoms: _156  and  _158
REMARK   67  A    between atoms: _158  and  _159
REMARK   68  A    between atoms: _158  and  _161
REMARK   69  A    between atoms: _161  and  _162
REMARK   70  A    between atoms: _165  and  _167
REMARK   71  A    between atoms: _167  and  _168
REMARK   72  A    between atoms: _167  and  _170
REMARK   73  A    between atoms: _173  and  _175
REMARK   74  A    between atoms: _175  and  _176
REMARK   75  A    between atoms: _175  and  _178
REMARK   76  A    between atoms: _178  and  _179
REMARK   77  A    between atoms: _179  and  _180
REMARK   78  A    between atoms: _183  and  _185
REMARK   79  A    between atoms: _185  and  _186
REMARK   80  A    between atoms: _185  and  _188
REMARK   81  A    between atoms: _188  and  _189
REMARK   82  A    between atoms: _194  and  _196
REMARK   83  A    between atoms: _196  and  _197
REMARK   84  A    between atoms: _196  and  _199
REMARK   85  A    between atoms: _202  and  _204
REMARK   86  A    between atoms: _204  and  _205
REMARK   87  A    between atoms: _204  and  _207
REMARK   88  A    between atoms: _210  and  _212
REMARK   89  A    between atoms: _212  and  _213
REMARK   90  A    between atoms: _212  and  _215
REMARK   91  A    between atoms: _215  and  _216
REMARK   92  A    between atoms: _216  and  _217
REMARK   93  A    between atoms: _217  and  _218
REMARK   94  A    between atoms: _218  and  _219
REMARK   95  A    between atoms: _223  and  _225
REMARK   96  A    between atoms: _225  and  _226
REMARK   97  A    between atoms: _225  and  _228
REMARK   98  A    between atoms: _228  and  _229
REMARK   99  A    between atoms: _235  and  _237
REMARK  100  A    between atoms: _237  and  _238
REMARK  101  A    between atoms: _237  and  _240
REMARK  102  A    between atoms: _240  and  _241
REMARK  103  A    between atoms: _246  and  _247
REMARK  104  A    between atoms: _249  and  _251
REMARK  105  A    between atoms: _251  and  _252
REMARK  106  A    between atoms: _251  and  _254
REMARK  107  A    between atoms: _254  and  _255
REMARK  108  A    between atoms: _258  and  _260
REMARK  109  A    between atoms: _260  and  _261
REMARK  110  A    between atoms: _260  and  _263
REMARK  111  A    between atoms: _263  and  _264
REMARK  112  A    between atoms: _270  and  _272
REMARK  113  A    between atoms: _272  and  _273
REMARK  114  A    between atoms: _272  and  _275
REMARK  115  A    between atoms: _275  and  _276
REMARK  116  A    between atoms: _279  and  _281
REMARK  117  A    between atoms: _281  and  _282
REMARK  118  A    between atoms: _281  and  _284
REMARK  119  A    between atoms: _284  and  _285
REMARK  120  A    between atoms: _285  and  _286
REMARK  121  A    between atoms: _289  and  _291
REMARK  122  A    between atoms: _291  and  _292
REMARK  123  A    between atoms: _291  and  _294
REMARK  124  A    between atoms: _294  and  _295
REMARK  125  A    between atoms: _300  and  _301
REMARK  126  A    between atoms: _303  and  _305
REMARK  127  A    between atoms: _305  and  _306
REMARK  128  A    between atoms: _305  and  _308
REMARK  129  A    between atoms: _310  and  _312
REMARK  130  A    between atoms: _312  and  _313
REMARK  131  A    between atoms: _312  and  _315
REMARK  132  A    between atoms: _315  and  _316
REMARK  133  A    between atoms: _318  and  _320
REMARK  134  A    between atoms: _320  and  _321
REMARK  135  A    between atoms: _323  and  _325
REMARK  136  A    between atoms: _325  and  _326
REMARK  137  A    between atoms: _328  and  _330
REMARK  138  A    between atoms: _330  and  _331
REMARK  139  A    between atoms: _330  and  _333
REMARK  140  A    between atoms: _333  and  _334
REMARK  141  A    between atoms: _334  and  _335
REMARK  142  A    between atoms: _338  and  _340
REMARK  143  A    between atoms: _340  and  _341
REMARK  144  A    between atoms: _340  and  _343
REMARK  145  A    between atoms: _343  and  _344
REMARK  146  A    between atoms: _347  and  _349
REMARK  147  A    between atoms: _349  and  _350
REMARK  148  A    between atoms: _349  and  _352
REMARK  149  A    between atoms: _352  and  _353
REMARK  150  A    between atoms: _359  and  _361
REMARK  151  A    between atoms: _361  and  _362
REMARK  152  A    between atoms: _361  and  _364
REMARK  153  A    between atoms: _364  and  _365
REMARK  154  A    between atoms: _368  and  _370
REMARK  155  A    between atoms: _370  and  _371
REMARK  156  A    between atoms: _370  and  _373
REMARK  157  A    between atoms: _373  and  _374
REMARK  158  A    between atoms: _379  and  _381
REMARK  159  A    between atoms: _381  and  _382
REMARK  160  A    between atoms: _381  and  _384
REMARK  161  A    between atoms: _384  and  _385
REMARK  162  A    between atoms: _388  and  _390
REMARK  163  A    between atoms: _390  and  _391
REMARK  164  A    between atoms: _390  and  _393
REMARK  165  A    between atoms: _393  and  _394
REMARK  166  A    between atoms: _394  and  _395
REMARK  167  A    between atoms: _395  and  _396
REMARK  168  A    between atoms: _396  and  _397
REMARK  169  A    between atoms: _402  and  _403
REMARK  170  A    between atoms: _408  and  _410
REMARK  171  A    between atoms: _410  and  _411
REMARK  172  A    between atoms: _410  and  _413
REMARK  173  A    between atoms: _413  and  _414
REMARK  174  A    between atoms: _414  and  _415
REMARK  175  A    between atoms: _418  and  _420
REMARK  176  A    between atoms: _420  and  _421
REMARK  177  A    between atoms: _420  and  _423
REMARK  178  A    between atoms: _423  and  _424
REMARK  179  A    between atoms: _429  and  _431
REMARK  180  A    between atoms: _431  and  _432
REMARK  181  A    between atoms: _431  and  _434
REMARK  182  A    between atoms: _434  and  _435
REMARK  183  A    between atoms: _438  and  _440
REMARK  184  A    between atoms: _440  and  _441
REMARK  185  A    between atoms: _440  and  _443
REMARK  186  A    between atoms: _443  and  _444
REMARK  187  A    between atoms: _447  and  _449
REMARK  188  A    between atoms: _449  and  _450
REMARK  189  A    between atoms: _449  and  _452
REMARK  190  A    between atoms: _452  and  _453
REMARK  191  A    between atoms: _456  and  _458
REMARK  192  A    between atoms: _458  and  _459
REMARK  193  A    between atoms: _458  and  _461
REMARK  194  A    between atoms: _461  and  _462
REMARK  195  A    between atoms: _465  and  _467
REMARK  196  A    between atoms: _467  and  _468
REMARK  197  A    between atoms: _467  and  _470
REMARK  198  A    between atoms: _470  and  _471
REMARK  199  A    between atoms: _471  and  _472
REMARK  200  A    between atoms: _472  and  _473
REMARK  201  A    between atoms: _473  and  _474
REMARK  202  A    between atoms: _478  and  _480
REMARK  203  A    between atoms: _480  and  _481
REMARK  204  A    between atoms: _480  and  _483
REMARK  205  A    between atoms: _483  and  _484
REMARK  206  A    between atoms: _487  and  _489
REMARK  207  A    between atoms: _489  and  _490
REMARK  208  A    between atoms: _489  and  _492
REMARK  209  A    between atoms: _492  and  _493
REMARK  210  A    between atoms: _495  and  _497
REMARK  211  A    between atoms: _497  and  _498
REMARK  212  A    between atoms: _497  and  _500
REMARK  213  A    between atoms: _500  and  _501
REMARK  214  A    between atoms: _504  and  _506
REMARK  215  A    between atoms: _506  and  _507
REMARK  216  A    between atoms: _506  and  _509
REMARK  217  A    between atoms: _509  and  _510
REMARK  218  A    between atoms: _516  and  _518
REMARK  219  A    between atoms: _518  and  _519
REMARK  220  A    between atoms: _521  and  _523
REMARK  221  A    between atoms: _523  and  _524
REMARK  222  A    between atoms: _523  and  _526
REMARK  223  A    between atoms: _526  and  _527
REMARK                            x       y       z     vdW  Elec       q    Type
REMARK                         _______ _______ _______ _____ _____    ______ ____
ROOT
ATOM      1  O   HOH     1       4.350  17.214  20.524  0.00  0.00    +0.000 OA
ENDROOT
TORSDOF 0
