REMARK  Name = ../refined-set-2016/2vjx/2vjx_pocket.pdb
REMARK  137 active torsions:
REMARK  status: ('A' for Active; 'I' for Inactive)
REMARK    1  A    between atoms: _1  and  _3
REMARK    2  A    between atoms: _3  and  _4
REMARK    3  A    between atoms: _3  and  _6
REMARK    4  A    between atoms: _6  and  _7
REMARK    5  A    between atoms: _12  and  _14
REMARK    6  A    between atoms: _14  and  _15
REMARK    7  A    between atoms: _14  and  _17
REMARK    8  A    between atoms: _17  and  _18
REMARK    9  A    between atoms: _28  and  _30
REMARK   10  A    between atoms: _30  and  _31
REMARK   11  A    between atoms: _30  and  _33
REMARK   12  A    between atoms: _33  and  _34
REMARK   13  A    between atoms: _37  and  _39
REMARK   14  A    between atoms: _39  and  _40
REMARK   15  A    between atoms: _39  and  _42
REMARK   16  A    between atoms: _42  and  _43
REMARK   17  A    between atoms: _53  and  _55
REMARK   18  A    between atoms: _55  and  _56
REMARK   19  A    between atoms: _58  and  _60
REMARK   20  A    between atoms: _60  and  _61
REMARK   21  A    between atoms: _60  and  _63
REMARK   22  A    between atoms: _63  and  _64
REMARK   23  A    between atoms: _69  and  _71
REMARK   24  A    between atoms: _71  and  _72
REMARK   25  A    between atoms: _71  and  _74
REMARK   26  A    between atoms: _74  and  _75
REMARK   27  A    between atoms: _78  and  _80
REMARK   28  A    between atoms: _80  and  _81
REMARK   29  A    between atoms: _80  and  _83
REMARK   30  A    between atoms: _83  and  _84
REMARK   31  A    between atoms: _84  and  _85
REMARK   32  A    between atoms: _85  and  _86
REMARK   33  A    between atoms: _95  and  _97
REMARK   34  A    between atoms: _97  and  _98
REMARK   35  A    between atoms: _97  and  _100
REMARK   36  A    between atoms: _100  and  _101
REMARK   37  A    between atoms: _111  and  _113
REMARK   38  A    between atoms: _113  and  _114
REMARK   39  A    between atoms: _116  and  _118
REMARK   40  A    between atoms: _118  and  _119
REMARK   41  A    between atoms: _121  and  _123
REMARK   42  A    between atoms: _123  and  _124
REMARK   43  A    between atoms: _123  and  _126
REMARK   44  A    between atoms: _126  and  _127
REMARK   45  A    between atoms: _130  and  _132
REMARK   46  A    between atoms: _132  and  _133
REMARK   47  A    between atoms: _136  and  _138
REMARK   48  A    between atoms: _138  and  _139
REMARK   49  A    between atoms: _138  and  _141
REMARK   50  A    between atoms: _143  and  _145
REMARK   51  A    between atoms: _145  and  _146
REMARK   52  A    between atoms: _145  and  _148
REMARK   53  A    between atoms: _148  and  _149
REMARK   54  A    between atoms: _154  and  _156
REMARK   55  A    between atoms: _156  and  _157
REMARK   56  A    between atoms: _156  and  _159
REMARK   57  A    between atoms: _159  and  _160
REMARK   58  A    between atoms: _160  and  _161
REMARK   59  A    between atoms: _164  and  _166
REMARK   60  A    between atoms: _166  and  _167
REMARK   61  A    between atoms: _166  and  _169
REMARK   62  A    between atoms: _169  and  _170
REMARK   63  A    between atoms: _170  and  _171
REMARK   64  A    between atoms: _174  and  _176
REMARK   65  A    between atoms: _176  and  _177
REMARK   66  A    between atoms: _176  and  _179
REMARK   67  A    between atoms: _179  and  _180
REMARK   68  A    between atoms: _190  and  _192
REMARK   69  A    between atoms: _192  and  _193
REMARK   70  A    between atoms: _192  and  _195
REMARK   71  A    between atoms: _195  and  _196
REMARK   72  A    between atoms: _199  and  _200
REMARK   73  A    between atoms: _205  and  _207
REMARK   74  A    between atoms: _207  and  _208
REMARK   75  A    between atoms: _207  and  _210
REMARK   76  A    between atoms: _210  and  _211
REMARK   77  A    between atoms: _216  and  _218
REMARK   78  A    between atoms: _218  and  _219
REMARK   79  A    between atoms: _218  and  _221
REMARK   80  A    between atoms: _221  and  _222
REMARK   81  A    between atoms: _232  and  _234
REMARK   82  A    between atoms: _234  and  _235
REMARK   83  A    between atoms: _234  and  _237
REMARK   84  A    between atoms: _237  and  _238
REMARK   85  A    between atoms: _248  and  _250
REMARK   86  A    between atoms: _250  and  _251
REMARK   87  A    between atoms: _250  and  _253
REMARK   88  A    between atoms: _253  and  _254
REMARK   89  A    between atoms: _259  and  _260
REMARK   90  A    between atoms: _262  and  _264
REMARK   91  A    between atoms: _264  and  _265
REMARK   92  A    between atoms: _264  and  _267
REMARK   93  A    between atoms: _267  and  _268
REMARK   94  A    between atoms: _270  and  _272
REMARK   95  A    between atoms: _272  and  _273
REMARK   96  A    between atoms: _272  and  _275
REMARK   97  A    between atoms: _275  and  _276
REMARK   98  A    between atoms: _276  and  _277
REMARK   99  A    between atoms: _280  and  _282
REMARK  100  A    between atoms: _282  and  _283
REMARK  101  A    between atoms: _282  and  _285
REMARK  102  A    between atoms: _285  and  _286
REMARK  103  A    between atoms: _292  and  _294
REMARK  104  A    between atoms: _294  and  _295
REMARK  105  A    between atoms: _297  and  _299
REMARK  106  A    between atoms: _299  and  _300
REMARK  107  A    between atoms: _299  and  _302
REMARK  108  A    between atoms: _302  and  _303
REMARK  109  A    between atoms: _309  and  _311
REMARK  110  A    between atoms: _311  and  _312
REMARK  111  A    between atoms: _311  and  _314
REMARK  112  A    between atoms: _314  and  _315
REMARK  113  A    between atoms: _315  and  _316
REMARK  114  A    between atoms: _321  and  _323
REMARK  115  A    between atoms: _323  and  _324
REMARK  116  A    between atoms: _323  and  _326
REMARK  117  A    between atoms: _326  and  _327
REMARK  118  A    between atoms: _327  and  _328
REMARK  119  A    between atoms: _328  and  _329
REMARK  120  A    between atoms: _329  and  _330
REMARK  121  A    between atoms: _334  and  _336
REMARK  122  A    between atoms: _336  and  _337
REMARK  123  A    between atoms: _336  and  _339
REMARK  124  A    between atoms: _339  and  _340
REMARK  125  A    between atoms: _342  and  _344
REMARK  126  A    between atoms: _344  and  _345
REMARK  127  A    between atoms: _344  and  _347
REMARK  128  A    between atoms: _347  and  _348
REMARK  129  A    between atoms: _358  and  _360
REMARK  130  A    between atoms: _360  and  _361
REMARK  131  A    between atoms: _360  and  _363
REMARK  132  A    between atoms: _363  and  _364
REMARK  133  A    between atoms: _364  and  _365
REMARK  134  A    between atoms: _370  and  _372
REMARK  135  A    between atoms: _372  and  _373
REMARK  136  A    between atoms: _372  and  _375
REMARK  137  A    between atoms: _375  and  _376
REMARK                            x       y       z     vdW  Elec       q    Type
REMARK                         _______ _______ _______ _____ _____    ______ ____
ROOT
ATOM      1  CB  ASN A   1      34.420  51.756   1.539  0.00  0.00    +0.110 C 
ENDROOT
BRANCH   1   2
ATOM      2  CG  ASN A   1      33.431  51.410   0.411  0.00  0.00    +0.221 C 
ATOM      3  OD1 ASN A   1      32.616  52.262  -0.013  0.00  0.00    -0.275 OA
ATOM      4  ND2 ASN A   1      33.472  50.170  -0.050  0.00  0.00    -0.329 N 
ATOM      5 HD21 ASN A   1      34.166  49.496   0.332  0.00  0.00    +0.145 HD
ATOM      6 HD22 ASN A   1      32.810  49.870  -0.794  0.00  0.00    +0.145 HD
ENDBRANCH   1   2
BRANCH   1   7
ATOM      7  CA  ASN A   1      35.468  52.784   1.089  0.00  0.00    +0.142 C 
BRANCH   7   8
ATOM      8  N   ASN A   1      36.463  52.167   0.216  0.00  0.00    -0.239 NA
ATOM      9  H   ASN A   1      36.641  51.143   0.260  0.00  0.00    +0.142 HD
ENDBRANCH   7   8
BRANCH   7  10
ATOM     10  C   ASN A   1      36.046  53.533   2.278  0.00  0.00    +0.225 C 
ATOM     11  O   ASN A   1      35.312  54.231   2.952  0.00  0.00    -0.287 OA
ENDBRANCH   7  10
ENDBRANCH   1   7
TORSDOF 4
REMARK  Name = ../refined-set-2016/2vjx/2vjx_pocket.pdb
REMARK  137 active torsions:
REMARK  status: ('A' for Active; 'I' for Inactive)
REMARK    1  A    between atoms: _1  and  _3
REMARK    2  A    between atoms: _3  and  _4
REMARK    3  A    between atoms: _3  and  _6
REMARK    4  A    between atoms: _6  and  _7
REMARK    5  A    between atoms: _12  and  _14
REMARK    6  A    between atoms: _14  and  _15
REMARK    7  A    between atoms: _14  and  _17
REMARK    8  A    between atoms: _17  and  _18
REMARK    9  A    between atoms: _28  and  _30
REMARK   10  A    between atoms: _30  and  _31
REMARK   11  A    between atoms: _30  and  _33
REMARK   12  A    between atoms: _33  and  _34
REMARK   13  A    between atoms: _37  and  _39
REMARK   14  A    between atoms: _39  and  _40
REMARK   15  A    between atoms: _39  and  _42
REMARK   16  A    between atoms: _42  and  _43
REMARK   17  A    between atoms: _53  and  _55
REMARK   18  A    between atoms: _55  and  _56
REMARK   19  A    between atoms: _58  and  _60
REMARK   20  A    between atoms: _60  and  _61
REMARK   21  A    between atoms: _60  and  _63
REMARK   22  A    between atoms: _63  and  _64
REMARK   23  A    between atoms: _69  and  _71
REMARK   24  A    between atoms: _71  and  _72
REMARK   25  A    between atoms: _71  and  _74
REMARK   26  A    between atoms: _74  and  _75
REMARK   27  A    between atoms: _78  and  _80
REMARK   28  A    between atoms: _80  and  _81
REMARK   29  A    between atoms: _80  and  _83
REMARK   30  A    between atoms: _83  and  _84
REMARK   31  A    between atoms: _84  and  _85
REMARK   32  A    between atoms: _85  and  _86
REMARK   33  A    between atoms: _95  and  _97
REMARK   34  A    between atoms: _97  and  _98
REMARK   35  A    between atoms: _97  and  _100
REMARK   36  A    between atoms: _100  and  _101
REMARK   37  A    between atoms: _111  and  _113
REMARK   38  A    between atoms: _113  and  _114
REMARK   39  A    between atoms: _116  and  _118
REMARK   40  A    between atoms: _118  and  _119
REMARK   41  A    between atoms: _121  and  _123
REMARK   42  A    between atoms: _123  and  _124
REMARK   43  A    between atoms: _123  and  _126
REMARK   44  A    between atoms: _126  and  _127
REMARK   45  A    between atoms: _130  and  _132
REMARK   46  A    between atoms: _132  and  _133
REMARK   47  A    between atoms: _136  and  _138
REMARK   48  A    between atoms: _138  and  _139
REMARK   49  A    between atoms: _138  and  _141
REMARK   50  A    between atoms: _143  and  _145
REMARK   51  A    between atoms: _145  and  _146
REMARK   52  A    between atoms: _145  and  _148
REMARK   53  A    between atoms: _148  and  _149
REMARK   54  A    between atoms: _154  and  _156
REMARK   55  A    between atoms: _156  and  _157
REMARK   56  A    between atoms: _156  and  _159
REMARK   57  A    between atoms: _159  and  _160
REMARK   58  A    between atoms: _160  and  _161
REMARK   59  A    between atoms: _164  and  _166
REMARK   60  A    between atoms: _166  and  _167
REMARK   61  A    between atoms: _166  and  _169
REMARK   62  A    between atoms: _169  and  _170
REMARK   63  A    between atoms: _170  and  _171
REMARK   64  A    between atoms: _174  and  _176
REMARK   65  A    between atoms: _176  and  _177
REMARK   66  A    between atoms: _176  and  _179
REMARK   67  A    between atoms: _179  and  _180
REMARK   68  A    between atoms: _190  and  _192
REMARK   69  A    between atoms: _192  and  _193
REMARK   70  A    between atoms: _192  and  _195
REMARK   71  A    between atoms: _195  and  _196
REMARK   72  A    between atoms: _199  and  _200
REMARK   73  A    between atoms: _205  and  _207
REMARK   74  A    between atoms: _207  and  _208
REMARK   75  A    between atoms: _207  and  _210
REMARK   76  A    between atoms: _210  and  _211
REMARK   77  A    between atoms: _216  and  _218
REMARK   78  A    between atoms: _218  and  _219
REMARK   79  A    between atoms: _218  and  _221
REMARK   80  A    between atoms: _221  and  _222
REMARK   81  A    between atoms: _232  and  _234
REMARK   82  A    between atoms: _234  and  _235
REMARK   83  A    between atoms: _234  and  _237
REMARK   84  A    between atoms: _237  and  _238
REMARK   85  A    between atoms: _248  and  _250
REMARK   86  A    between atoms: _250  and  _251
REMARK   87  A    between atoms: _250  and  _253
REMARK   88  A    between atoms: _253  and  _254
REMARK   89  A    between atoms: _259  and  _260
REMARK   90  A    between atoms: _262  and  _264
REMARK   91  A    between atoms: _264  and  _265
REMARK   92  A    between atoms: _264  and  _267
REMARK   93  A    between atoms: _267  and  _268
REMARK   94  A    between atoms: _270  and  _272
REMARK   95  A    between atoms: _272  and  _273
REMARK   96  A    between atoms: _272  and  _275
REMARK   97  A    between atoms: _275  and  _276
REMARK   98  A    between atoms: _276  and  _277
REMARK   99  A    between atoms: _280  and  _282
REMARK  100  A    between atoms: _282  and  _283
REMARK  101  A    between atoms: _282  and  _285
REMARK  102  A    between atoms: _285  and  _286
REMARK  103  A    between atoms: _292  and  _294
REMARK  104  A    between atoms: _294  and  _295
REMARK  105  A    between atoms: _297  and  _299
REMARK  106  A    between atoms: _299  and  _300
REMARK  107  A    between atoms: _299  and  _302
REMARK  108  A    between atoms: _302  and  _303
REMARK  109  A    between atoms: _309  and  _311
REMARK  110  A    between atoms: _311  and  _312
REMARK  111  A    between atoms: _311  and  _314
REMARK  112  A    between atoms: _314  and  _315
REMARK  113  A    between atoms: _315  and  _316
REMARK  114  A    between atoms: _321  and  _323
REMARK  115  A    between atoms: _323  and  _324
REMARK  116  A    between atoms: _323  and  _326
REMARK  117  A    between atoms: _326  and  _327
REMARK  118  A    between atoms: _327  and  _328
REMARK  119  A    between atoms: _328  and  _329
REMARK  120  A    between atoms: _329  and  _330
REMARK  121  A    between atoms: _334  and  _336
REMARK  122  A    between atoms: _336  and  _337
REMARK  123  A    between atoms: _336  and  _339
REMARK  124  A    between atoms: _339  and  _340
REMARK  125  A    between atoms: _342  and  _344
REMARK  126  A    between atoms: _344  and  _345
REMARK  127  A    between atoms: _344  and  _347
REMARK  128  A    between atoms: _347  and  _348
REMARK  129  A    between atoms: _358  and  _360
REMARK  130  A    between atoms: _360  and  _361
REMARK  131  A    between atoms: _360  and  _363
REMARK  132  A    between atoms: _363  and  _364
REMARK  133  A    between atoms: _364  and  _365
REMARK  134  A    between atoms: _370  and  _372
REMARK  135  A    between atoms: _372  and  _373
REMARK  136  A    between atoms: _372  and  _375
REMARK  137  A    between atoms: _375  and  _376
REMARK                            x       y       z     vdW  Elec       q    Type
REMARK                         _______ _______ _______ _____ _____    ______ ____
ROOT
ATOM      1  CA  ASP A   2      29.489  54.647  -0.303  0.00  0.00    +0.160 C 
ENDROOT
BRANCH   1   4
ATOM      2  C   TRP A   1      30.661  54.825   1.841  0.00  0.00    +0.239 C 
ATOM      3  O   TRP A   1      30.521  56.057   1.830  0.00  0.00    -0.274 OA
ATOM      4  N   ASP A   2      30.141  54.045   0.887  0.00  0.00    -0.297 N 
ATOM      5  H   ASP A   2      30.194  53.010   0.979  0.00  0.00    +0.150 HD
BRANCH   2   6
ATOM      6  CA  TRP A   1      31.408  54.146   3.012  0.00  0.00    +0.149 C 
BRANCH   6   7
ATOM      7  N   TRP A   1      31.854  55.219   3.914  0.00  0.00    -0.238 NA
ATOM      8  H   TRP A   1      31.365  56.137   3.909  0.00  0.00    +0.142 HD
ENDBRANCH   6   7
BRANCH   6   9
ATOM      9  CB  TRP A   1      30.478  53.150   3.747  0.00  0.00    +0.054 C 
BRANCH   9  10
ATOM     10  CG  TRP A   1      30.641  51.761   3.162  0.00  0.00    -0.002 A 
ATOM     11  CD2 TRP A   1      31.663  50.805   3.486  0.00  0.00    +0.013 A 
ATOM     12  CE3 TRP A   1      32.740  50.796   4.392  0.00  0.00    +0.001 A 
ATOM     13  CZ3 TRP A   1      33.591  49.664   4.427  0.00  0.00    +0.000 A 
ATOM     14  CH2 TRP A   1      33.320  48.534   3.604  0.00  0.00    +0.001 A 
ATOM     15  CZ2 TRP A   1      32.258  48.538   2.706  0.00  0.00    +0.017 A 
ATOM     16  CE2 TRP A   1      31.427  49.663   2.685  0.00  0.00    +0.056 A 
ATOM     17  NE1 TRP A   1      30.314  49.922   1.925  0.00  0.00    -0.352 N 
ATOM     18  HE1 TRP A   1      29.891  49.273   1.232  0.00  0.00    +0.166 HD
ATOM     19  CD1 TRP A   1      29.851  51.174   2.228  0.00  0.00    +0.068 A 
ENDBRANCH   9  10
ENDBRANCH   6   9
ENDBRANCH   2   6
ENDBRANCH   1   4
BRANCH   1  20
ATOM     20  C   ASP A   2      28.029  55.095  -0.027  0.00  0.00    +0.241 C 
ATOM     21  N   TRP A   3      27.580  54.959   1.226  0.00  0.00    -0.297 N 
ATOM     22  H   TRP A   3      28.128  54.353   1.870  0.00  0.00    +0.150 HD
ATOM     23  O   ASP A   2      27.336  55.563  -0.939  0.00  0.00    -0.273 OA
BRANCH  21  24
ATOM     24  CA  TRP A   3      26.359  55.608   1.766  0.00  0.00    +0.153 C 
BRANCH  24  25
ATOM     25  C   TRP A   3      26.652  56.264   3.132  0.00  0.00    +0.241 C 
ATOM     26  O   TRP A   3      25.712  56.566   3.881  0.00  0.00    -0.273 OA
ATOM     27  N   GLY A   4      27.937  56.437   3.464  0.00  0.00    -0.296 N 
ATOM     28  H   GLY A   4      28.674  56.331   2.738  0.00  0.00    +0.150 HD
BRANCH  27  29
ATOM     29  CA  GLY A   4      28.321  56.777   4.849  0.00  0.00    +0.163 C 
BRANCH  29  30
ATOM     30  C   GLY A   4      29.220  57.991   5.010  0.00  0.00    +0.229 C 
ATOM     31  O   GLY A   4      30.090  58.249   4.196  0.00  0.00    -0.286 OA
ENDBRANCH  29  30
ENDBRANCH  27  29
ENDBRANCH  24  25
BRANCH  24  32
ATOM     32  CB  TRP A   3      25.224  54.567   2.009  0.00  0.00    +0.057 C 
BRANCH  32  33
ATOM     33  CG  TRP A   3      25.771  53.241   2.502  0.00  0.00    -0.002 A 
ATOM     34  CD2 TRP A   3      26.285  52.940   3.829  0.00  0.00    +0.013 A 
ATOM     35  CE3 TRP A   3      26.420  53.689   5.016  0.00  0.00    +0.001 A 
ATOM     36  CZ3 TRP A   3      26.977  53.070   6.148  0.00  0.00    +0.000 A 
ATOM     37  CH2 TRP A   3      27.409  51.726   6.093  0.00  0.00    +0.001 A 
ATOM     38  CZ2 TRP A   3      27.278  50.961   4.936  0.00  0.00    +0.017 A 
ATOM     39  CE2 TRP A   3      26.731  51.595   3.811  0.00  0.00    +0.056 A 
ATOM     40  NE1 TRP A   3      26.505  51.106   2.558  0.00  0.00    -0.352 N 
ATOM     41  HE1 TRP A   3      26.730  50.143   2.237  0.00  0.00    +0.166 HD
ATOM     42  CD1 TRP A   3      25.921  52.110   1.771  0.00  0.00    +0.068 A 
ENDBRANCH  32  33
ENDBRANCH  24  32
ENDBRANCH  21  24
ENDBRANCH   1  20
BRANCH   1  43
ATOM     43  CB  ASP A   2      29.647  53.785  -1.567  0.00  0.00    +0.143 C 
BRANCH  43  44
ATOM     44  CG  ASP A   2      29.023  52.372  -1.432  0.00  0.00    +0.367 C 
ATOM     45  OD2 ASP A   2      28.216  52.123  -0.483  0.00  0.00    -0.246 OA
ATOM     46  OD1 ASP A   2      29.318  51.527  -2.326  0.00  0.00    -0.246 OA
ENDBRANCH  43  44
ENDBRANCH   1  43
TORSDOF 14
REMARK  Name = ../refined-set-2016/2vjx/2vjx_pocket.pdb
REMARK  137 active torsions:
REMARK  status: ('A' for Active; 'I' for Inactive)
REMARK    1  A    between atoms: _1  and  _3
REMARK    2  A    between atoms: _3  and  _4
REMARK    3  A    between atoms: _3  and  _6
REMARK    4  A    between atoms: _6  and  _7
REMARK    5  A    between atoms: _12  and  _14
REMARK    6  A    between atoms: _14  and  _15
REMARK    7  A    between atoms: _14  and  _17
REMARK    8  A    between atoms: _17  and  _18
REMARK    9  A    between atoms: _28  and  _30
REMARK   10  A    between atoms: _30  and  _31
REMARK   11  A    between atoms: _30  and  _33
REMARK   12  A    between atoms: _33  and  _34
REMARK   13  A    between atoms: _37  and  _39
REMARK   14  A    between atoms: _39  and  _40
REMARK   15  A    between atoms: _39  and  _42
REMARK   16  A    between atoms: _42  and  _43
REMARK   17  A    between atoms: _53  and  _55
REMARK   18  A    between atoms: _55  and  _56
REMARK   19  A    between atoms: _58  and  _60
REMARK   20  A    between atoms: _60  and  _61
REMARK   21  A    between atoms: _60  and  _63
REMARK   22  A    between atoms: _63  and  _64
REMARK   23  A    between atoms: _69  and  _71
REMARK   24  A    between atoms: _71  and  _72
REMARK   25  A    between atoms: _71  and  _74
REMARK   26  A    between atoms: _74  and  _75
REMARK   27  A    between atoms: _78  and  _80
REMARK   28  A    between atoms: _80  and  _81
REMARK   29  A    between atoms: _80  and  _83
REMARK   30  A    between atoms: _83  and  _84
REMARK   31  A    between atoms: _84  and  _85
REMARK   32  A    between atoms: _85  and  _86
REMARK   33  A    between atoms: _95  and  _97
REMARK   34  A    between atoms: _97  and  _98
REMARK   35  A    between atoms: _97  and  _100
REMARK   36  A    between atoms: _100  and  _101
REMARK   37  A    between atoms: _111  and  _113
REMARK   38  A    between atoms: _113  and  _114
REMARK   39  A    between atoms: _116  and  _118
REMARK   40  A    between atoms: _118  and  _119
REMARK   41  A    between atoms: _121  and  _123
REMARK   42  A    between atoms: _123  and  _124
REMARK   43  A    between atoms: _123  and  _126
REMARK   44  A    between atoms: _126  and  _127
REMARK   45  A    between atoms: _130  and  _132
REMARK   46  A    between atoms: _132  and  _133
REMARK   47  A    between atoms: _136  and  _138
REMARK   48  A    between atoms: _138  and  _139
REMARK   49  A    between atoms: _138  and  _141
REMARK   50  A    between atoms: _143  and  _145
REMARK   51  A    between atoms: _145  and  _146
REMARK   52  A    between atoms: _145  and  _148
REMARK   53  A    between atoms: _148  and  _149
REMARK   54  A    between atoms: _154  and  _156
REMARK   55  A    between atoms: _156  and  _157
REMARK   56  A    between atoms: _156  and  _159
REMARK   57  A    between atoms: _159  and  _160
REMARK   58  A    between atoms: _160  and  _161
REMARK   59  A    between atoms: _164  and  _166
REMARK   60  A    between atoms: _166  and  _167
REMARK   61  A    between atoms: _166  and  _169
REMARK   62  A    between atoms: _169  and  _170
REMARK   63  A    between atoms: _170  and  _171
REMARK   64  A    between atoms: _174  and  _176
REMARK   65  A    between atoms: _176  and  _177
REMARK   66  A    between atoms: _176  and  _179
REMARK   67  A    between atoms: _179  and  _180
REMARK   68  A    between atoms: _190  and  _192
REMARK   69  A    between atoms: _192  and  _193
REMARK   70  A    between atoms: _192  and  _195
REMARK   71  A    between atoms: _195  and  _196
REMARK   72  A    between atoms: _199  and  _200
REMARK   73  A    between atoms: _205  and  _207
REMARK   74  A    between atoms: _207  and  _208
REMARK   75  A    between atoms: _207  and  _210
REMARK   76  A    between atoms: _210  and  _211
REMARK   77  A    between atoms: _216  and  _218
REMARK   78  A    between atoms: _218  and  _219
REMARK   79  A    between atoms: _218  and  _221
REMARK   80  A    between atoms: _221  and  _222
REMARK   81  A    between atoms: _232  and  _234
REMARK   82  A    between atoms: _234  and  _235
REMARK   83  A    between atoms: _234  and  _237
REMARK   84  A    between atoms: _237  and  _238
REMARK   85  A    between atoms: _248  and  _250
REMARK   86  A    between atoms: _250  and  _251
REMARK   87  A    between atoms: _250  and  _253
REMARK   88  A    between atoms: _253  and  _254
REMARK   89  A    between atoms: _259  and  _260
REMARK   90  A    between atoms: _262  and  _264
REMARK   91  A    between atoms: _264  and  _265
REMARK   92  A    between atoms: _264  and  _267
REMARK   93  A    between atoms: _267  and  _268
REMARK   94  A    between atoms: _270  and  _272
REMARK   95  A    between atoms: _272  and  _273
REMARK   96  A    between atoms: _272  and  _275
REMARK   97  A    between atoms: _275  and  _276
REMARK   98  A    between atoms: _276  and  _277
REMARK   99  A    between atoms: _280  and  _282
REMARK  100  A    between atoms: _282  and  _283
REMARK  101  A    between atoms: _282  and  _285
REMARK  102  A    between atoms: _285  and  _286
REMARK  103  A    between atoms: _292  and  _294
REMARK  104  A    between atoms: _294  and  _295
REMARK  105  A    between atoms: _297  and  _299
REMARK  106  A    between atoms: _299  and  _300
REMARK  107  A    between atoms: _299  and  _302
REMARK  108  A    between atoms: _302  and  _303
REMARK  109  A    between atoms: _309  and  _311
REMARK  110  A    between atoms: _311  and  _312
REMARK  111  A    between atoms: _311  and  _314
REMARK  112  A    between atoms: _314  and  _315
REMARK  113  A    between atoms: _315  and  _316
REMARK  114  A    between atoms: _321  and  _323
REMARK  115  A    between atoms: _323  and  _324
REMARK  116  A    between atoms: _323  and  _326
REMARK  117  A    between atoms: _326  and  _327
REMARK  118  A    between atoms: _327  and  _328
REMARK  119  A    between atoms: _328  and  _329
REMARK  120  A    between atoms: _329  and  _330
REMARK  121  A    between atoms: _334  and  _336
REMARK  122  A    between atoms: _336  and  _337
REMARK  123  A    between atoms: _336  and  _339
REMARK  124  A    between atoms: _339  and  _340
REMARK  125  A    between atoms: _342  and  _344
REMARK  126  A    between atoms: _344  and  _345
REMARK  127  A    between atoms: _344  and  _347
REMARK  128  A    between atoms: _347  and  _348
REMARK  129  A    between atoms: _358  and  _360
REMARK  130  A    between atoms: _360  and  _361
REMARK  131  A    between atoms: _360  and  _363
REMARK  132  A    between atoms: _363  and  _364
REMARK  133  A    between atoms: _364  and  _365
REMARK  134  A    between atoms: _370  and  _372
REMARK  135  A    between atoms: _372  and  _373
REMARK  136  A    between atoms: _372  and  _375
REMARK  137  A    between atoms: _375  and  _376
REMARK                            x       y       z     vdW  Elec       q    Type
REMARK                         _______ _______ _______ _____ _____    ______ ____
ROOT
ATOM      1  CB  ASN A   1      21.843  44.012   3.526  0.00  0.00    +0.110 C 
ENDROOT
BRANCH   1   2
ATOM      2  CG  ASN A   1      22.191  42.739   2.779  0.00  0.00    +0.221 C 
ATOM      3  OD1 ASN A   1      23.205  42.094   3.102  0.00  0.00    -0.275 OA
ATOM      4  ND2 ASN A   1      21.403  42.396   1.732  0.00  0.00    -0.329 N 
ATOM      5 HD21 ASN A   1      20.565  42.968   1.502  0.00  0.00    +0.145 HD
ATOM      6 HD22 ASN A   1      21.636  41.561   1.158  0.00  0.00    +0.145 HD
ENDBRANCH   1   2
BRANCH   1   7
ATOM      7  CA  ASN A   1      20.801  43.776   4.628  0.00  0.00    +0.142 C 
BRANCH   7   8
ATOM      8  N   ASN A   1      19.489  43.531   4.025  0.00  0.00    -0.239 NA
ATOM      9  H   ASN A   1      19.296  43.931   3.085  0.00  0.00    +0.142 HD
ENDBRANCH   7   8
BRANCH   7  10
ATOM     10  C   ASN A   1      20.762  44.993   5.546  0.00  0.00    +0.225 C 
ATOM     11  O   ASN A   1      20.314  46.101   5.164  0.00  0.00    -0.287 OA
ENDBRANCH   7  10
ENDBRANCH   1   7
TORSDOF 4
REMARK  Name = ../refined-set-2016/2vjx/2vjx_pocket.pdb
REMARK  137 active torsions:
REMARK  status: ('A' for Active; 'I' for Inactive)
REMARK    1  A    between atoms: _1  and  _3
REMARK    2  A    between atoms: _3  and  _4
REMARK    3  A    between atoms: _3  and  _6
REMARK    4  A    between atoms: _6  and  _7
REMARK    5  A    between atoms: _12  and  _14
REMARK    6  A    between atoms: _14  and  _15
REMARK    7  A    between atoms: _14  and  _17
REMARK    8  A    between atoms: _17  and  _18
REMARK    9  A    between atoms: _28  and  _30
REMARK   10  A    between atoms: _30  and  _31
REMARK   11  A    between atoms: _30  and  _33
REMARK   12  A    between atoms: _33  and  _34
REMARK   13  A    between atoms: _37  and  _39
REMARK   14  A    between atoms: _39  and  _40
REMARK   15  A    between atoms: _39  and  _42
REMARK   16  A    between atoms: _42  and  _43
REMARK   17  A    between atoms: _53  and  _55
REMARK   18  A    between atoms: _55  and  _56
REMARK   19  A    between atoms: _58  and  _60
REMARK   20  A    between atoms: _60  and  _61
REMARK   21  A    between atoms: _60  and  _63
REMARK   22  A    between atoms: _63  and  _64
REMARK   23  A    between atoms: _69  and  _71
REMARK   24  A    between atoms: _71  and  _72
REMARK   25  A    between atoms: _71  and  _74
REMARK   26  A    between atoms: _74  and  _75
REMARK   27  A    between atoms: _78  and  _80
REMARK   28  A    between atoms: _80  and  _81
REMARK   29  A    between atoms: _80  and  _83
REMARK   30  A    between atoms: _83  and  _84
REMARK   31  A    between atoms: _84  and  _85
REMARK   32  A    between atoms: _85  and  _86
REMARK   33  A    between atoms: _95  and  _97
REMARK   34  A    between atoms: _97  and  _98
REMARK   35  A    between atoms: _97  and  _100
REMARK   36  A    between atoms: _100  and  _101
REMARK   37  A    between atoms: _111  and  _113
REMARK   38  A    between atoms: _113  and  _114
REMARK   39  A    between atoms: _116  and  _118
REMARK   40  A    between atoms: _118  and  _119
REMARK   41  A    between atoms: _121  and  _123
REMARK   42  A    between atoms: _123  and  _124
REMARK   43  A    between atoms: _123  and  _126
REMARK   44  A    between atoms: _126  and  _127
REMARK   45  A    between atoms: _130  and  _132
REMARK   46  A    between atoms: _132  and  _133
REMARK   47  A    between atoms: _136  and  _138
REMARK   48  A    between atoms: _138  and  _139
REMARK   49  A    between atoms: _138  and  _141
REMARK   50  A    between atoms: _143  and  _145
REMARK   51  A    between atoms: _145  and  _146
REMARK   52  A    between atoms: _145  and  _148
REMARK   53  A    between atoms: _148  and  _149
REMARK   54  A    between atoms: _154  and  _156
REMARK   55  A    between atoms: _156  and  _157
REMARK   56  A    between atoms: _156  and  _159
REMARK   57  A    between atoms: _159  and  _160
REMARK   58  A    between atoms: _160  and  _161
REMARK   59  A    between atoms: _164  and  _166
REMARK   60  A    between atoms: _166  and  _167
REMARK   61  A    between atoms: _166  and  _169
REMARK   62  A    between atoms: _169  and  _170
REMARK   63  A    between atoms: _170  and  _171
REMARK   64  A    between atoms: _174  and  _176
REMARK   65  A    between atoms: _176  and  _177
REMARK   66  A    between atoms: _176  and  _179
REMARK   67  A    between atoms: _179  and  _180
REMARK   68  A    between atoms: _190  and  _192
REMARK   69  A    between atoms: _192  and  _193
REMARK   70  A    between atoms: _192  and  _195
REMARK   71  A    between atoms: _195  and  _196
REMARK   72  A    between atoms: _199  and  _200
REMARK   73  A    between atoms: _205  and  _207
REMARK   74  A    between atoms: _207  and  _208
REMARK   75  A    between atoms: _207  and  _210
REMARK   76  A    between atoms: _210  and  _211
REMARK   77  A    between atoms: _216  and  _218
REMARK   78  A    between atoms: _218  and  _219
REMARK   79  A    between atoms: _218  and  _221
REMARK   80  A    between atoms: _221  and  _222
REMARK   81  A    between atoms: _232  and  _234
REMARK   82  A    between atoms: _234  and  _235
REMARK   83  A    between atoms: _234  and  _237
REMARK   84  A    between atoms: _237  and  _238
REMARK   85  A    between atoms: _248  and  _250
REMARK   86  A    between atoms: _250  and  _251
REMARK   87  A    between atoms: _250  and  _253
REMARK   88  A    between atoms: _253  and  _254
REMARK   89  A    between atoms: _259  and  _260
REMARK   90  A    between atoms: _262  and  _264
REMARK   91  A    between atoms: _264  and  _265
REMARK   92  A    between atoms: _264  and  _267
REMARK   93  A    between atoms: _267  and  _268
REMARK   94  A    between atoms: _270  and  _272
REMARK   95  A    between atoms: _272  and  _273
REMARK   96  A    between atoms: _272  and  _275
REMARK   97  A    between atoms: _275  and  _276
REMARK   98  A    between atoms: _276  and  _277
REMARK   99  A    between atoms: _280  and  _282
REMARK  100  A    between atoms: _282  and  _283
REMARK  101  A    between atoms: _282  and  _285
REMARK  102  A    between atoms: _285  and  _286
REMARK  103  A    between atoms: _292  and  _294
REMARK  104  A    between atoms: _294  and  _295
REMARK  105  A    between atoms: _297  and  _299
REMARK  106  A    between atoms: _299  and  _300
REMARK  107  A    between atoms: _299  and  _302
REMARK  108  A    between atoms: _302  and  _303
REMARK  109  A    between atoms: _309  and  _311
REMARK  110  A    between atoms: _311  and  _312
REMARK  111  A    between atoms: _311  and  _314
REMARK  112  A    between atoms: _314  and  _315
REMARK  113  A    between atoms: _315  and  _316
REMARK  114  A    between atoms: _321  and  _323
REMARK  115  A    between atoms: _323  and  _324
REMARK  116  A    between atoms: _323  and  _326
REMARK  117  A    between atoms: _326  and  _327
REMARK  118  A    between atoms: _327  and  _328
REMARK  119  A    between atoms: _328  and  _329
REMARK  120  A    between atoms: _329  and  _330
REMARK  121  A    between atoms: _334  and  _336
REMARK  122  A    between atoms: _336  and  _337
REMARK  123  A    between atoms: _336  and  _339
REMARK  124  A    between atoms: _339  and  _340
REMARK  125  A    between atoms: _342  and  _344
REMARK  126  A    between atoms: _344  and  _345
REMARK  127  A    between atoms: _344  and  _347
REMARK  128  A    between atoms: _347  and  _348
REMARK  129  A    between atoms: _358  and  _360
REMARK  130  A    between atoms: _360  and  _361
REMARK  131  A    between atoms: _360  and  _363
REMARK  132  A    between atoms: _363  and  _364
REMARK  133  A    between atoms: _364  and  _365
REMARK  134  A    between atoms: _370  and  _372
REMARK  135  A    between atoms: _372  and  _373
REMARK  136  A    between atoms: _372  and  _375
REMARK  137  A    between atoms: _375  and  _376
REMARK                            x       y       z     vdW  Elec       q    Type
REMARK                         _______ _______ _______ _____ _____    ______ ____
ROOT
ATOM      1  CA  ILE A   1      23.880  48.437   8.366  0.00  0.00    +0.133 C 
ENDROOT
BRANCH   1   2
ATOM      2  N   ILE A   1      22.658  47.682   8.077  0.00  0.00    -0.239 NA
ATOM      3  H   ILE A   1      21.772  48.211   7.943  0.00  0.00    +0.142 HD
ENDBRANCH   1   2
BRANCH   1   4
ATOM      4  C   ILE A   1      23.702  49.161   9.715  0.00  0.00    +0.224 C 
ATOM      5  O   ILE A   1      22.605  49.176  10.283  0.00  0.00    -0.287 OA
ENDBRANCH   1   4
BRANCH   1   6
ATOM      6  CB  ILE A   1      24.195  49.456   7.232  0.00  0.00    +0.023 C 
ATOM      7  CG2 ILE A   1      24.400  48.759   5.866  0.00  0.00    +0.002 C 
BRANCH   6   8
ATOM      8  CG1 ILE A   1      23.131  50.596   7.198  0.00  0.00    +0.002 C 
ATOM      9  CD1 ILE A   1      23.662  51.875   6.560  0.00  0.00    +0.000 C 
ENDBRANCH   6   8
ENDBRANCH   1   6
TORSDOF 4
REMARK  Name = ../refined-set-2016/2vjx/2vjx_pocket.pdb
REMARK  137 active torsions:
REMARK  status: ('A' for Active; 'I' for Inactive)
REMARK    1  A    between atoms: _1  and  _3
REMARK    2  A    between atoms: _3  and  _4
REMARK    3  A    between atoms: _3  and  _6
REMARK    4  A    between atoms: _6  and  _7
REMARK    5  A    between atoms: _12  and  _14
REMARK    6  A    between atoms: _14  and  _15
REMARK    7  A    between atoms: _14  and  _17
REMARK    8  A    between atoms: _17  and  _18
REMARK    9  A    between atoms: _28  and  _30
REMARK   10  A    between atoms: _30  and  _31
REMARK   11  A    between atoms: _30  and  _33
REMARK   12  A    between atoms: _33  and  _34
REMARK   13  A    between atoms: _37  and  _39
REMARK   14  A    between atoms: _39  and  _40
REMARK   15  A    between atoms: _39  and  _42
REMARK   16  A    between atoms: _42  and  _43
REMARK   17  A    between atoms: _53  and  _55
REMARK   18  A    between atoms: _55  and  _56
REMARK   19  A    between atoms: _58  and  _60
REMARK   20  A    between atoms: _60  and  _61
REMARK   21  A    between atoms: _60  and  _63
REMARK   22  A    between atoms: _63  and  _64
REMARK   23  A    between atoms: _69  and  _71
REMARK   24  A    between atoms: _71  and  _72
REMARK   25  A    between atoms: _71  and  _74
REMARK   26  A    between atoms: _74  and  _75
REMARK   27  A    between atoms: _78  and  _80
REMARK   28  A    between atoms: _80  and  _81
REMARK   29  A    between atoms: _80  and  _83
REMARK   30  A    between atoms: _83  and  _84
REMARK   31  A    between atoms: _84  and  _85
REMARK   32  A    between atoms: _85  and  _86
REMARK   33  A    between atoms: _95  and  _97
REMARK   34  A    between atoms: _97  and  _98
REMARK   35  A    between atoms: _97  and  _100
REMARK   36  A    between atoms: _100  and  _101
REMARK   37  A    between atoms: _111  and  _113
REMARK   38  A    between atoms: _113  and  _114
REMARK   39  A    between atoms: _116  and  _118
REMARK   40  A    between atoms: _118  and  _119
REMARK   41  A    between atoms: _121  and  _123
REMARK   42  A    between atoms: _123  and  _124
REMARK   43  A    between atoms: _123  and  _126
REMARK   44  A    between atoms: _126  and  _127
REMARK   45  A    between atoms: _130  and  _132
REMARK   46  A    between atoms: _132  and  _133
REMARK   47  A    between atoms: _136  and  _138
REMARK   48  A    between atoms: _138  and  _139
REMARK   49  A    between atoms: _138  and  _141
REMARK   50  A    between atoms: _143  and  _145
REMARK   51  A    between atoms: _145  and  _146
REMARK   52  A    between atoms: _145  and  _148
REMARK   53  A    between atoms: _148  and  _149
REMARK   54  A    between atoms: _154  and  _156
REMARK   55  A    between atoms: _156  and  _157
REMARK   56  A    between atoms: _156  and  _159
REMARK   57  A    between atoms: _159  and  _160
REMARK   58  A    between atoms: _160  and  _161
REMARK   59  A    between atoms: _164  and  _166
REMARK   60  A    between atoms: _166  and  _167
REMARK   61  A    between atoms: _166  and  _169
REMARK   62  A    between atoms: _169  and  _170
REMARK   63  A    between atoms: _170  and  _171
REMARK   64  A    between atoms: _174  and  _176
REMARK   65  A    between atoms: _176  and  _177
REMARK   66  A    between atoms: _176  and  _179
REMARK   67  A    between atoms: _179  and  _180
REMARK   68  A    between atoms: _190  and  _192
REMARK   69  A    between atoms: _192  and  _193
REMARK   70  A    between atoms: _192  and  _195
REMARK   71  A    between atoms: _195  and  _196
REMARK   72  A    between atoms: _199  and  _200
REMARK   73  A    between atoms: _205  and  _207
REMARK   74  A    between atoms: _207  and  _208
REMARK   75  A    between atoms: _207  and  _210
REMARK   76  A    between atoms: _210  and  _211
REMARK   77  A    between atoms: _216  and  _218
REMARK   78  A    between atoms: _218  and  _219
REMARK   79  A    between atoms: _218  and  _221
REMARK   80  A    between atoms: _221  and  _222
REMARK   81  A    between atoms: _232  and  _234
REMARK   82  A    between atoms: _234  and  _235
REMARK   83  A    between atoms: _234  and  _237
REMARK   84  A    between atoms: _237  and  _238
REMARK   85  A    between atoms: _248  and  _250
REMARK   86  A    between atoms: _250  and  _251
REMARK   87  A    between atoms: _250  and  _253
REMARK   88  A    between atoms: _253  and  _254
REMARK   89  A    between atoms: _259  and  _260
REMARK   90  A    between atoms: _262  and  _264
REMARK   91  A    between atoms: _264  and  _265
REMARK   92  A    between atoms: _264  and  _267
REMARK   93  A    between atoms: _267  and  _268
REMARK   94  A    between atoms: _270  and  _272
REMARK   95  A    between atoms: _272  and  _273
REMARK   96  A    between atoms: _272  and  _275
REMARK   97  A    between atoms: _275  and  _276
REMARK   98  A    between atoms: _276  and  _277
REMARK   99  A    between atoms: _280  and  _282
REMARK  100  A    between atoms: _282  and  _283
REMARK  101  A    between atoms: _282  and  _285
REMARK  102  A    between atoms: _285  and  _286
REMARK  103  A    between atoms: _292  and  _294
REMARK  104  A    between atoms: _294  and  _295
REMARK  105  A    between atoms: _297  and  _299
REMARK  106  A    between atoms: _299  and  _300
REMARK  107  A    between atoms: _299  and  _302
REMARK  108  A    between atoms: _302  and  _303
REMARK  109  A    between atoms: _309  and  _311
REMARK  110  A    between atoms: _311  and  _312
REMARK  111  A    between atoms: _311  and  _314
REMARK  112  A    between atoms: _314  and  _315
REMARK  113  A    between atoms: _315  and  _316
REMARK  114  A    between atoms: _321  and  _323
REMARK  115  A    between atoms: _323  and  _324
REMARK  116  A    between atoms: _323  and  _326
REMARK  117  A    between atoms: _326  and  _327
REMARK  118  A    between atoms: _327  and  _328
REMARK  119  A    between atoms: _328  and  _329
REMARK  120  A    between atoms: _329  and  _330
REMARK  121  A    between atoms: _334  and  _336
REMARK  122  A    between atoms: _336  and  _337
REMARK  123  A    between atoms: _336  and  _339
REMARK  124  A    between atoms: _339  and  _340
REMARK  125  A    between atoms: _342  and  _344
REMARK  126  A    between atoms: _344  and  _345
REMARK  127  A    between atoms: _344  and  _347
REMARK  128  A    between atoms: _347  and  _348
REMARK  129  A    between atoms: _358  and  _360
REMARK  130  A    between atoms: _360  and  _361
REMARK  131  A    between atoms: _360  and  _363
REMARK  132  A    between atoms: _363  and  _364
REMARK  133  A    between atoms: _364  and  _365
REMARK  134  A    between atoms: _370  and  _372
REMARK  135  A    between atoms: _372  and  _373
REMARK  136  A    between atoms: _372  and  _375
REMARK  137  A    between atoms: _375  and  _376
REMARK                            x       y       z     vdW  Elec       q    Type
REMARK                         _______ _______ _______ _____ _____    ______ ____
ROOT
ATOM      1  NE  ARG A   1      25.684  39.460   4.269  0.00  0.00    -0.265 N 
ATOM      2  HE  ARG A   1      26.275  39.026   5.007  0.00  0.00    +0.259 HD
ATOM      3  CZ  ARG A   1      26.301  40.120   3.281  0.00  0.00    +0.342 C 
ATOM      4  NH2 ARG A   1      27.636  40.193   3.282  0.00  0.00    -0.292 N 
ATOM      5 HH21 ARG A   1      28.181  39.741   4.044  0.00  0.00    +0.255 HD
ATOM      6 HH22 ARG A   1      28.130  40.702   2.521  0.00  0.00    +0.255 HD
ATOM      7  NH1 ARG A   1      25.590  40.696   2.277  0.00  0.00    -0.292 N 
ATOM      8 HH11 ARG A   1      24.552  40.628   2.269  0.00  0.00    +0.255 HD
ATOM      9 HH12 ARG A   1      26.083  41.205   1.516  0.00  0.00    +0.255 HD
ENDROOT
BRANCH   1  10
ATOM     10  CD  ARG A   1      24.235  39.309   4.379  0.00  0.00    +0.174 C 
BRANCH  10  11
ATOM     11  CG  ARG A   1      23.759  39.786   5.722  0.00  0.00    +0.045 C 
BRANCH  11  12
ATOM     12  CB  ARG A   1      22.204  39.889   5.817  0.00  0.00    +0.029 C 
BRANCH  12  13
ATOM     13  CA  ARG A   1      21.742  40.040   7.270  0.00  0.00    +0.133 C 
BRANCH  13  14
ATOM     14  N   ARG A   1      20.305  40.251   7.320  0.00  0.00    -0.239 NA
ATOM     15  H   ARG A   1      19.856  40.871   6.616  0.00  0.00    +0.142 HD
ENDBRANCH  13  14
BRANCH  13  16
ATOM     16  C   ARG A   1      22.486  41.203   7.949  0.00  0.00    +0.224 C 
ATOM     17  O   ARG A   1      22.312  42.376   7.540  0.00  0.00    -0.287 OA
ENDBRANCH  13  16
ENDBRANCH  12  13
ENDBRANCH  11  12
ENDBRANCH  10  11
ENDBRANCH   1  10
TORSDOF 6
REMARK  Name = ../refined-set-2016/2vjx/2vjx_pocket.pdb
REMARK  137 active torsions:
REMARK  status: ('A' for Active; 'I' for Inactive)
REMARK    1  A    between atoms: _1  and  _3
REMARK    2  A    between atoms: _3  and  _4
REMARK    3  A    between atoms: _3  and  _6
REMARK    4  A    between atoms: _6  and  _7
REMARK    5  A    between atoms: _12  and  _14
REMARK    6  A    between atoms: _14  and  _15
REMARK    7  A    between atoms: _14  and  _17
REMARK    8  A    between atoms: _17  and  _18
REMARK    9  A    between atoms: _28  and  _30
REMARK   10  A    between atoms: _30  and  _31
REMARK   11  A    between atoms: _30  and  _33
REMARK   12  A    between atoms: _33  and  _34
REMARK   13  A    between atoms: _37  and  _39
REMARK   14  A    between atoms: _39  and  _40
REMARK   15  A    between atoms: _39  and  _42
REMARK   16  A    between atoms: _42  and  _43
REMARK   17  A    between atoms: _53  and  _55
REMARK   18  A    between atoms: _55  and  _56
REMARK   19  A    between atoms: _58  and  _60
REMARK   20  A    between atoms: _60  and  _61
REMARK   21  A    between atoms: _60  and  _63
REMARK   22  A    between atoms: _63  and  _64
REMARK   23  A    between atoms: _69  and  _71
REMARK   24  A    between atoms: _71  and  _72
REMARK   25  A    between atoms: _71  and  _74
REMARK   26  A    between atoms: _74  and  _75
REMARK   27  A    between atoms: _78  and  _80
REMARK   28  A    between atoms: _80  and  _81
REMARK   29  A    between atoms: _80  and  _83
REMARK   30  A    between atoms: _83  and  _84
REMARK   31  A    between atoms: _84  and  _85
REMARK   32  A    between atoms: _85  and  _86
REMARK   33  A    between atoms: _95  and  _97
REMARK   34  A    between atoms: _97  and  _98
REMARK   35  A    between atoms: _97  and  _100
REMARK   36  A    between atoms: _100  and  _101
REMARK   37  A    between atoms: _111  and  _113
REMARK   38  A    between atoms: _113  and  _114
REMARK   39  A    between atoms: _116  and  _118
REMARK   40  A    between atoms: _118  and  _119
REMARK   41  A    between atoms: _121  and  _123
REMARK   42  A    between atoms: _123  and  _124
REMARK   43  A    between atoms: _123  and  _126
REMARK   44  A    between atoms: _126  and  _127
REMARK   45  A    between atoms: _130  and  _132
REMARK   46  A    between atoms: _132  and  _133
REMARK   47  A    between atoms: _136  and  _138
REMARK   48  A    between atoms: _138  and  _139
REMARK   49  A    between atoms: _138  and  _141
REMARK   50  A    between atoms: _143  and  _145
REMARK   51  A    between atoms: _145  and  _146
REMARK   52  A    between atoms: _145  and  _148
REMARK   53  A    between atoms: _148  and  _149
REMARK   54  A    between atoms: _154  and  _156
REMARK   55  A    between atoms: _156  and  _157
REMARK   56  A    between atoms: _156  and  _159
REMARK   57  A    between atoms: _159  and  _160
REMARK   58  A    between atoms: _160  and  _161
REMARK   59  A    between atoms: _164  and  _166
REMARK   60  A    between atoms: _166  and  _167
REMARK   61  A    between atoms: _166  and  _169
REMARK   62  A    between atoms: _169  and  _170
REMARK   63  A    between atoms: _170  and  _171
REMARK   64  A    between atoms: _174  and  _176
REMARK   65  A    between atoms: _176  and  _177
REMARK   66  A    between atoms: _176  and  _179
REMARK   67  A    between atoms: _179  and  _180
REMARK   68  A    between atoms: _190  and  _192
REMARK   69  A    between atoms: _192  and  _193
REMARK   70  A    between atoms: _192  and  _195
REMARK   71  A    between atoms: _195  and  _196
REMARK   72  A    between atoms: _199  and  _200
REMARK   73  A    between atoms: _205  and  _207
REMARK   74  A    between atoms: _207  and  _208
REMARK   75  A    between atoms: _207  and  _210
REMARK   76  A    between atoms: _210  and  _211
REMARK   77  A    between atoms: _216  and  _218
REMARK   78  A    between atoms: _218  and  _219
REMARK   79  A    between atoms: _218  and  _221
REMARK   80  A    between atoms: _221  and  _222
REMARK   81  A    between atoms: _232  and  _234
REMARK   82  A    between atoms: _234  and  _235
REMARK   83  A    between atoms: _234  and  _237
REMARK   84  A    between atoms: _237  and  _238
REMARK   85  A    between atoms: _248  and  _250
REMARK   86  A    between atoms: _250  and  _251
REMARK   87  A    between atoms: _250  and  _253
REMARK   88  A    between atoms: _253  and  _254
REMARK   89  A    between atoms: _259  and  _260
REMARK   90  A    between atoms: _262  and  _264
REMARK   91  A    between atoms: _264  and  _265
REMARK   92  A    between atoms: _264  and  _267
REMARK   93  A    between atoms: _267  and  _268
REMARK   94  A    between atoms: _270  and  _272
REMARK   95  A    between atoms: _272  and  _273
REMARK   96  A    between atoms: _272  and  _275
REMARK   97  A    between atoms: _275  and  _276
REMARK   98  A    between atoms: _276  and  _277
REMARK   99  A    between atoms: _280  and  _282
REMARK  100  A    between atoms: _282  and  _283
REMARK  101  A    between atoms: _282  and  _285
REMARK  102  A    between atoms: _285  and  _286
REMARK  103  A    between atoms: _292  and  _294
REMARK  104  A    between atoms: _294  and  _295
REMARK  105  A    between atoms: _297  and  _299
REMARK  106  A    between atoms: _299  and  _300
REMARK  107  A    between atoms: _299  and  _302
REMARK  108  A    between atoms: _302  and  _303
REMARK  109  A    between atoms: _309  and  _311
REMARK  110  A    between atoms: _311  and  _312
REMARK  111  A    between atoms: _311  and  _314
REMARK  112  A    between atoms: _314  and  _315
REMARK  113  A    between atoms: _315  and  _316
REMARK  114  A    between atoms: _321  and  _323
REMARK  115  A    between atoms: _323  and  _324
REMARK  116  A    between atoms: _323  and  _326
REMARK  117  A    between atoms: _326  and  _327
REMARK  118  A    between atoms: _327  and  _328
REMARK  119  A    between atoms: _328  and  _329
REMARK  120  A    between atoms: _329  and  _330
REMARK  121  A    between atoms: _334  and  _336
REMARK  122  A    between atoms: _336  and  _337
REMARK  123  A    between atoms: _336  and  _339
REMARK  124  A    between atoms: _339  and  _340
REMARK  125  A    between atoms: _342  and  _344
REMARK  126  A    between atoms: _344  and  _345
REMARK  127  A    between atoms: _344  and  _347
REMARK  128  A    between atoms: _347  and  _348
REMARK  129  A    between atoms: _358  and  _360
REMARK  130  A    between atoms: _360  and  _361
REMARK  131  A    between atoms: _360  and  _363
REMARK  132  A    between atoms: _363  and  _364
REMARK  133  A    between atoms: _364  and  _365
REMARK  134  A    between atoms: _370  and  _372
REMARK  135  A    between atoms: _372  and  _373
REMARK  136  A    between atoms: _372  and  _375
REMARK  137  A    between atoms: _375  and  _376
REMARK                            x       y       z     vdW  Elec       q    Type
REMARK                         _______ _______ _______ _____ _____    ______ ____
ROOT
ATOM      1  CA  TRP A   1      26.504  43.070   7.016  0.00  0.00    +0.149 C 
ENDROOT
BRANCH   1   2
ATOM      2  C   TRP A   1      27.859  43.399   7.662  0.00  0.00    +0.239 C 
ATOM      3  O   TRP A   1      27.951  44.174   8.636  0.00  0.00    -0.274 OA
ATOM      4  N   GLY A   2      28.914  42.805   7.099  0.00  0.00    -0.296 N 
ATOM      5  H   GLY A   2      28.777  42.284   6.209  0.00  0.00    +0.150 HD
BRANCH   4   6
ATOM      6  CA  GLY A   2      30.281  42.858   7.695  0.00  0.00    +0.176 C 
BRANCH   6   7
ATOM      7  C   GLY A   2      31.066  44.152   7.779  0.00  0.00    +0.243 C 
ATOM      8  O   GLY A   2      32.210  44.147   8.254  0.00  0.00    -0.273 OA
ATOM      9  N   GLY A   3      30.499  45.261   7.310  0.00  0.00    -0.296 N 
ATOM     10  H   GLY A   3      29.589  45.210   6.809  0.00  0.00    +0.150 HD
BRANCH   9  11
ATOM     11  CA  GLY A   3      31.163  46.555   7.502  0.00  0.00    +0.163 C 
BRANCH  11  12
ATOM     12  C   GLY A   3      30.660  47.387   8.676  0.00  0.00    +0.229 C 
ATOM     13  O   GLY A   3      31.064  48.549   8.805  0.00  0.00    -0.286 OA
ENDBRANCH  11  12
ENDBRANCH   9  11
ENDBRANCH   6   7
ENDBRANCH   4   6
ENDBRANCH   1   2
BRANCH   1  14
ATOM     14  N   TRP A   1      25.427  42.950   7.991  0.00  0.00    -0.238 NA
ATOM     15  H   TRP A   1      24.659  43.651   7.974  0.00  0.00    +0.142 HD
ENDBRANCH   1  14
BRANCH   1  16
ATOM     16  CB  TRP A   1      26.053  44.097   5.962  0.00  0.00    +0.054 C 
BRANCH  16  17
ATOM     17  CG  TRP A   1      27.075  44.691   5.080  0.00  0.00    -0.002 A 
ATOM     18  CD2 TRP A   1      27.769  45.920   5.306  0.00  0.00    +0.013 A 
ATOM     19  CE3 TRP A   1      27.776  46.858   6.362  0.00  0.00    +0.001 A 
ATOM     20  CZ3 TRP A   1      28.624  47.981   6.249  0.00  0.00    +0.000 A 
ATOM     21  CH2 TRP A   1      29.418  48.171   5.104  0.00  0.00    +0.001 A 
ATOM     22  CZ2 TRP A   1      29.401  47.279   4.061  0.00  0.00    +0.017 A 
ATOM     23  CE2 TRP A   1      28.577  46.156   4.174  0.00  0.00    +0.056 A 
ATOM     24  NE1 TRP A   1      28.376  45.112   3.294  0.00  0.00    -0.352 N 
ATOM     25  HE1 TRP A   1      28.849  44.996   2.375  0.00  0.00    +0.166 HD
ATOM     26  CD1 TRP A   1      27.451  44.253   3.830  0.00  0.00    +0.068 A 
ENDBRANCH  16  17
ENDBRANCH   1  16
TORSDOF 8
REMARK  Name = ../refined-set-2016/2vjx/2vjx_pocket.pdb
REMARK  137 active torsions:
REMARK  status: ('A' for Active; 'I' for Inactive)
REMARK    1  A    between atoms: _1  and  _3
REMARK    2  A    between atoms: _3  and  _4
REMARK    3  A    between atoms: _3  and  _6
REMARK    4  A    between atoms: _6  and  _7
REMARK    5  A    between atoms: _12  and  _14
REMARK    6  A    between atoms: _14  and  _15
REMARK    7  A    between atoms: _14  and  _17
REMARK    8  A    between atoms: _17  and  _18
REMARK    9  A    between atoms: _28  and  _30
REMARK   10  A    between atoms: _30  and  _31
REMARK   11  A    between atoms: _30  and  _33
REMARK   12  A    between atoms: _33  and  _34
REMARK   13  A    between atoms: _37  and  _39
REMARK   14  A    between atoms: _39  and  _40
REMARK   15  A    between atoms: _39  and  _42
REMARK   16  A    between atoms: _42  and  _43
REMARK   17  A    between atoms: _53  and  _55
REMARK   18  A    between atoms: _55  and  _56
REMARK   19  A    between atoms: _58  and  _60
REMARK   20  A    between atoms: _60  and  _61
REMARK   21  A    between atoms: _60  and  _63
REMARK   22  A    between atoms: _63  and  _64
REMARK   23  A    between atoms: _69  and  _71
REMARK   24  A    between atoms: _71  and  _72
REMARK   25  A    between atoms: _71  and  _74
REMARK   26  A    between atoms: _74  and  _75
REMARK   27  A    between atoms: _78  and  _80
REMARK   28  A    between atoms: _80  and  _81
REMARK   29  A    between atoms: _80  and  _83
REMARK   30  A    between atoms: _83  and  _84
REMARK   31  A    between atoms: _84  and  _85
REMARK   32  A    between atoms: _85  and  _86
REMARK   33  A    between atoms: _95  and  _97
REMARK   34  A    between atoms: _97  and  _98
REMARK   35  A    between atoms: _97  and  _100
REMARK   36  A    between atoms: _100  and  _101
REMARK   37  A    between atoms: _111  and  _113
REMARK   38  A    between atoms: _113  and  _114
REMARK   39  A    between atoms: _116  and  _118
REMARK   40  A    between atoms: _118  and  _119
REMARK   41  A    between atoms: _121  and  _123
REMARK   42  A    between atoms: _123  and  _124
REMARK   43  A    between atoms: _123  and  _126
REMARK   44  A    between atoms: _126  and  _127
REMARK   45  A    between atoms: _130  and  _132
REMARK   46  A    between atoms: _132  and  _133
REMARK   47  A    between atoms: _136  and  _138
REMARK   48  A    between atoms: _138  and  _139
REMARK   49  A    between atoms: _138  and  _141
REMARK   50  A    between atoms: _143  and  _145
REMARK   51  A    between atoms: _145  and  _146
REMARK   52  A    between atoms: _145  and  _148
REMARK   53  A    between atoms: _148  and  _149
REMARK   54  A    between atoms: _154  and  _156
REMARK   55  A    between atoms: _156  and  _157
REMARK   56  A    between atoms: _156  and  _159
REMARK   57  A    between atoms: _159  and  _160
REMARK   58  A    between atoms: _160  and  _161
REMARK   59  A    between atoms: _164  and  _166
REMARK   60  A    between atoms: _166  and  _167
REMARK   61  A    between atoms: _166  and  _169
REMARK   62  A    between atoms: _169  and  _170
REMARK   63  A    between atoms: _170  and  _171
REMARK   64  A    between atoms: _174  and  _176
REMARK   65  A    between atoms: _176  and  _177
REMARK   66  A    between atoms: _176  and  _179
REMARK   67  A    between atoms: _179  and  _180
REMARK   68  A    between atoms: _190  and  _192
REMARK   69  A    between atoms: _192  and  _193
REMARK   70  A    between atoms: _192  and  _195
REMARK   71  A    between atoms: _195  and  _196
REMARK   72  A    between atoms: _199  and  _200
REMARK   73  A    between atoms: _205  and  _207
REMARK   74  A    between atoms: _207  and  _208
REMARK   75  A    between atoms: _207  and  _210
REMARK   76  A    between atoms: _210  and  _211
REMARK   77  A    between atoms: _216  and  _218
REMARK   78  A    between atoms: _218  and  _219
REMARK   79  A    between atoms: _218  and  _221
REMARK   80  A    between atoms: _221  and  _222
REMARK   81  A    between atoms: _232  and  _234
REMARK   82  A    between atoms: _234  and  _235
REMARK   83  A    between atoms: _234  and  _237
REMARK   84  A    between atoms: _237  and  _238
REMARK   85  A    between atoms: _248  and  _250
REMARK   86  A    between atoms: _250  and  _251
REMARK   87  A    between atoms: _250  and  _253
REMARK   88  A    between atoms: _253  and  _254
REMARK   89  A    between atoms: _259  and  _260
REMARK   90  A    between atoms: _262  and  _264
REMARK   91  A    between atoms: _264  and  _265
REMARK   92  A    between atoms: _264  and  _267
REMARK   93  A    between atoms: _267  and  _268
REMARK   94  A    between atoms: _270  and  _272
REMARK   95  A    between atoms: _272  and  _273
REMARK   96  A    between atoms: _272  and  _275
REMARK   97  A    between atoms: _275  and  _276
REMARK   98  A    between atoms: _276  and  _277
REMARK   99  A    between atoms: _280  and  _282
REMARK  100  A    between atoms: _282  and  _283
REMARK  101  A    between atoms: _282  and  _285
REMARK  102  A    between atoms: _285  and  _286
REMARK  103  A    between atoms: _292  and  _294
REMARK  104  A    between atoms: _294  and  _295
REMARK  105  A    between atoms: _297  and  _299
REMARK  106  A    between atoms: _299  and  _300
REMARK  107  A    between atoms: _299  and  _302
REMARK  108  A    between atoms: _302  and  _303
REMARK  109  A    between atoms: _309  and  _311
REMARK  110  A    between atoms: _311  and  _312
REMARK  111  A    between atoms: _311  and  _314
REMARK  112  A    between atoms: _314  and  _315
REMARK  113  A    between atoms: _315  and  _316
REMARK  114  A    between atoms: _321  and  _323
REMARK  115  A    between atoms: _323  and  _324
REMARK  116  A    between atoms: _323  and  _326
REMARK  117  A    between atoms: _326  and  _327
REMARK  118  A    between atoms: _327  and  _328
REMARK  119  A    between atoms: _328  and  _329
REMARK  120  A    between atoms: _329  and  _330
REMARK  121  A    between atoms: _334  and  _336
REMARK  122  A    between atoms: _336  and  _337
REMARK  123  A    between atoms: _336  and  _339
REMARK  124  A    between atoms: _339  and  _340
REMARK  125  A    between atoms: _342  and  _344
REMARK  126  A    between atoms: _344  and  _345
REMARK  127  A    between atoms: _344  and  _347
REMARK  128  A    between atoms: _347  and  _348
REMARK  129  A    between atoms: _358  and  _360
REMARK  130  A    between atoms: _360  and  _361
REMARK  131  A    between atoms: _360  and  _363
REMARK  132  A    between atoms: _363  and  _364
REMARK  133  A    between atoms: _364  and  _365
REMARK  134  A    between atoms: _370  and  _372
REMARK  135  A    between atoms: _372  and  _373
REMARK  136  A    between atoms: _372  and  _375
REMARK  137  A    between atoms: _375  and  _376
REMARK                            x       y       z     vdW  Elec       q    Type
REMARK                         _______ _______ _______ _____ _____    ______ ____
ROOT
ATOM      1  CA  ASP A   1      28.859  38.414   8.928  0.00  0.00    +0.144 C 
ENDROOT
BRANCH   1   2
ATOM      2  N   ASP A   1      27.478  38.302   9.466  0.00  0.00    -0.239 NA
ATOM      3  H   ASP A   1      26.792  39.068   9.310  0.00  0.00    +0.142 HD
ENDBRANCH   1   2
BRANCH   1   4
ATOM      4  C   ASP A   1      29.853  38.610  10.096  0.00  0.00    +0.225 C 
ATOM      5  O   ASP A   1      29.514  39.261  11.107  0.00  0.00    -0.287 OA
ENDBRANCH   1   4
BRANCH   1   6
ATOM      6  CB  ASP A   1      29.024  39.643   8.001  0.00  0.00    +0.139 C 
BRANCH   6   7
ATOM      7  CG  ASP A   1      28.390  39.465   6.623  0.00  0.00    +0.367 C 
ATOM      8  OD2 ASP A   1      27.677  38.447   6.362  0.00  0.00    -0.246 OA
ATOM      9  OD1 ASP A   1      28.601  40.378   5.797  0.00  0.00    -0.246 OA
ENDBRANCH   6   7
ENDBRANCH   1   6
TORSDOF 4
REMARK  Name = ../refined-set-2016/2vjx/2vjx_pocket.pdb
REMARK  137 active torsions:
REMARK  status: ('A' for Active; 'I' for Inactive)
REMARK    1  A    between atoms: _1  and  _3
REMARK    2  A    between atoms: _3  and  _4
REMARK    3  A    between atoms: _3  and  _6
REMARK    4  A    between atoms: _6  and  _7
REMARK    5  A    between atoms: _12  and  _14
REMARK    6  A    between atoms: _14  and  _15
REMARK    7  A    between atoms: _14  and  _17
REMARK    8  A    between atoms: _17  and  _18
REMARK    9  A    between atoms: _28  and  _30
REMARK   10  A    between atoms: _30  and  _31
REMARK   11  A    between atoms: _30  and  _33
REMARK   12  A    between atoms: _33  and  _34
REMARK   13  A    between atoms: _37  and  _39
REMARK   14  A    between atoms: _39  and  _40
REMARK   15  A    between atoms: _39  and  _42
REMARK   16  A    between atoms: _42  and  _43
REMARK   17  A    between atoms: _53  and  _55
REMARK   18  A    between atoms: _55  and  _56
REMARK   19  A    between atoms: _58  and  _60
REMARK   20  A    between atoms: _60  and  _61
REMARK   21  A    between atoms: _60  and  _63
REMARK   22  A    between atoms: _63  and  _64
REMARK   23  A    between atoms: _69  and  _71
REMARK   24  A    between atoms: _71  and  _72
REMARK   25  A    between atoms: _71  and  _74
REMARK   26  A    between atoms: _74  and  _75
REMARK   27  A    between atoms: _78  and  _80
REMARK   28  A    between atoms: _80  and  _81
REMARK   29  A    between atoms: _80  and  _83
REMARK   30  A    between atoms: _83  and  _84
REMARK   31  A    between atoms: _84  and  _85
REMARK   32  A    between atoms: _85  and  _86
REMARK   33  A    between atoms: _95  and  _97
REMARK   34  A    between atoms: _97  and  _98
REMARK   35  A    between atoms: _97  and  _100
REMARK   36  A    between atoms: _100  and  _101
REMARK   37  A    between atoms: _111  and  _113
REMARK   38  A    between atoms: _113  and  _114
REMARK   39  A    between atoms: _116  and  _118
REMARK   40  A    between atoms: _118  and  _119
REMARK   41  A    between atoms: _121  and  _123
REMARK   42  A    between atoms: _123  and  _124
REMARK   43  A    between atoms: _123  and  _126
REMARK   44  A    between atoms: _126  and  _127
REMARK   45  A    between atoms: _130  and  _132
REMARK   46  A    between atoms: _132  and  _133
REMARK   47  A    between atoms: _136  and  _138
REMARK   48  A    between atoms: _138  and  _139
REMARK   49  A    between atoms: _138  and  _141
REMARK   50  A    between atoms: _143  and  _145
REMARK   51  A    between atoms: _145  and  _146
REMARK   52  A    between atoms: _145  and  _148
REMARK   53  A    between atoms: _148  and  _149
REMARK   54  A    between atoms: _154  and  _156
REMARK   55  A    between atoms: _156  and  _157
REMARK   56  A    between atoms: _156  and  _159
REMARK   57  A    between atoms: _159  and  _160
REMARK   58  A    between atoms: _160  and  _161
REMARK   59  A    between atoms: _164  and  _166
REMARK   60  A    between atoms: _166  and  _167
REMARK   61  A    between atoms: _166  and  _169
REMARK   62  A    between atoms: _169  and  _170
REMARK   63  A    between atoms: _170  and  _171
REMARK   64  A    between atoms: _174  and  _176
REMARK   65  A    between atoms: _176  and  _177
REMARK   66  A    between atoms: _176  and  _179
REMARK   67  A    between atoms: _179  and  _180
REMARK   68  A    between atoms: _190  and  _192
REMARK   69  A    between atoms: _192  and  _193
REMARK   70  A    between atoms: _192  and  _195
REMARK   71  A    between atoms: _195  and  _196
REMARK   72  A    between atoms: _199  and  _200
REMARK   73  A    between atoms: _205  and  _207
REMARK   74  A    between atoms: _207  and  _208
REMARK   75  A    between atoms: _207  and  _210
REMARK   76  A    between atoms: _210  and  _211
REMARK   77  A    between atoms: _216  and  _218
REMARK   78  A    between atoms: _218  and  _219
REMARK   79  A    between atoms: _218  and  _221
REMARK   80  A    between atoms: _221  and  _222
REMARK   81  A    between atoms: _232  and  _234
REMARK   82  A    between atoms: _234  and  _235
REMARK   83  A    between atoms: _234  and  _237
REMARK   84  A    between atoms: _237  and  _238
REMARK   85  A    between atoms: _248  and  _250
REMARK   86  A    between atoms: _250  and  _251
REMARK   87  A    between atoms: _250  and  _253
REMARK   88  A    between atoms: _253  and  _254
REMARK   89  A    between atoms: _259  and  _260
REMARK   90  A    between atoms: _262  and  _264
REMARK   91  A    between atoms: _264  and  _265
REMARK   92  A    between atoms: _264  and  _267
REMARK   93  A    between atoms: _267  and  _268
REMARK   94  A    between atoms: _270  and  _272
REMARK   95  A    between atoms: _272  and  _273
REMARK   96  A    between atoms: _272  and  _275
REMARK   97  A    between atoms: _275  and  _276
REMARK   98  A    between atoms: _276  and  _277
REMARK   99  A    between atoms: _280  and  _282
REMARK  100  A    between atoms: _282  and  _283
REMARK  101  A    between atoms: _282  and  _285
REMARK  102  A    between atoms: _285  and  _286
REMARK  103  A    between atoms: _292  and  _294
REMARK  104  A    between atoms: _294  and  _295
REMARK  105  A    between atoms: _297  and  _299
REMARK  106  A    between atoms: _299  and  _300
REMARK  107  A    between atoms: _299  and  _302
REMARK  108  A    between atoms: _302  and  _303
REMARK  109  A    between atoms: _309  and  _311
REMARK  110  A    between atoms: _311  and  _312
REMARK  111  A    between atoms: _311  and  _314
REMARK  112  A    between atoms: _314  and  _315
REMARK  113  A    between atoms: _315  and  _316
REMARK  114  A    between atoms: _321  and  _323
REMARK  115  A    between atoms: _323  and  _324
REMARK  116  A    between atoms: _323  and  _326
REMARK  117  A    between atoms: _326  and  _327
REMARK  118  A    between atoms: _327  and  _328
REMARK  119  A    between atoms: _328  and  _329
REMARK  120  A    between atoms: _329  and  _330
REMARK  121  A    between atoms: _334  and  _336
REMARK  122  A    between atoms: _336  and  _337
REMARK  123  A    between atoms: _336  and  _339
REMARK  124  A    between atoms: _339  and  _340
REMARK  125  A    between atoms: _342  and  _344
REMARK  126  A    between atoms: _344  and  _345
REMARK  127  A    between atoms: _344  and  _347
REMARK  128  A    between atoms: _347  and  _348
REMARK  129  A    between atoms: _358  and  _360
REMARK  130  A    between atoms: _360  and  _361
REMARK  131  A    between atoms: _360  and  _363
REMARK  132  A    between atoms: _363  and  _364
REMARK  133  A    between atoms: _364  and  _365
REMARK  134  A    between atoms: _370  and  _372
REMARK  135  A    between atoms: _372  and  _373
REMARK  136  A    between atoms: _372  and  _375
REMARK  137  A    between atoms: _375  and  _376
REMARK                            x       y       z     vdW  Elec       q    Type
REMARK                         _______ _______ _______ _____ _____    ______ ____
ROOT
ATOM      1  C   ALA A   1      34.958  44.587   2.990  0.00  0.00    +0.238 C 
ATOM      2  O   ALA A   1      35.629  45.589   3.246  0.00  0.00    -0.274 OA
ATOM      3  N   CYS A   2      34.888  44.025   1.787  0.00  0.00    -0.298 N 
ATOM      4  H   CYS A   2      34.526  43.051   1.737  0.00  0.00    +0.150 HD
ENDROOT
BRANCH   1   5
ATOM      5  CA  ALA A   1      34.143  43.907   4.095  0.00  0.00    +0.145 C 
ATOM      6  CB  ALA A   1      32.950  44.809   4.493  0.00  0.00    +0.028 C 
BRANCH   5   7
ATOM      7  N   ALA A   1      34.929  43.561   5.299  0.00  0.00    -0.238 NA
ATOM      8  H   ALA A   1      35.749  44.140   5.572  0.00  0.00    +0.142 HD
ENDBRANCH   5   7
ENDBRANCH   1   5
BRANCH   3   9
ATOM      9  CA  CYS A   2      35.285  44.672   0.503  0.00  0.00    +0.149 C 
BRANCH   9  10
ATOM     10  C   CYS A   2      36.778  44.959   0.266  0.00  0.00    +0.228 C 
ATOM     11  O   CYS A   2      37.114  45.702  -0.669  0.00  0.00    -0.286 OA
ENDBRANCH   9  10
BRANCH   9  12
ATOM     12  CB  CYS A   2      34.502  45.967   0.257  0.00  0.00    +0.096 C 
ATOM     13  SG  CYS A   2      32.713  45.800   0.329  0.00  0.00    -0.080 S 
ENDBRANCH   9  12
ENDBRANCH   3   9
TORSDOF 5
REMARK  Name = ../refined-set-2016/2vjx/2vjx_pocket.pdb
REMARK  137 active torsions:
REMARK  status: ('A' for Active; 'I' for Inactive)
REMARK    1  A    between atoms: _1  and  _3
REMARK    2  A    between atoms: _3  and  _4
REMARK    3  A    between atoms: _3  and  _6
REMARK    4  A    between atoms: _6  and  _7
REMARK    5  A    between atoms: _12  and  _14
REMARK    6  A    between atoms: _14  and  _15
REMARK    7  A    between atoms: _14  and  _17
REMARK    8  A    between atoms: _17  and  _18
REMARK    9  A    between atoms: _28  and  _30
REMARK   10  A    between atoms: _30  and  _31
REMARK   11  A    between atoms: _30  and  _33
REMARK   12  A    between atoms: _33  and  _34
REMARK   13  A    between atoms: _37  and  _39
REMARK   14  A    between atoms: _39  and  _40
REMARK   15  A    between atoms: _39  and  _42
REMARK   16  A    between atoms: _42  and  _43
REMARK   17  A    between atoms: _53  and  _55
REMARK   18  A    between atoms: _55  and  _56
REMARK   19  A    between atoms: _58  and  _60
REMARK   20  A    between atoms: _60  and  _61
REMARK   21  A    between atoms: _60  and  _63
REMARK   22  A    between atoms: _63  and  _64
REMARK   23  A    between atoms: _69  and  _71
REMARK   24  A    between atoms: _71  and  _72
REMARK   25  A    between atoms: _71  and  _74
REMARK   26  A    between atoms: _74  and  _75
REMARK   27  A    between atoms: _78  and  _80
REMARK   28  A    between atoms: _80  and  _81
REMARK   29  A    between atoms: _80  and  _83
REMARK   30  A    between atoms: _83  and  _84
REMARK   31  A    between atoms: _84  and  _85
REMARK   32  A    between atoms: _85  and  _86
REMARK   33  A    between atoms: _95  and  _97
REMARK   34  A    between atoms: _97  and  _98
REMARK   35  A    between atoms: _97  and  _100
REMARK   36  A    between atoms: _100  and  _101
REMARK   37  A    between atoms: _111  and  _113
REMARK   38  A    between atoms: _113  and  _114
REMARK   39  A    between atoms: _116  and  _118
REMARK   40  A    between atoms: _118  and  _119
REMARK   41  A    between atoms: _121  and  _123
REMARK   42  A    between atoms: _123  and  _124
REMARK   43  A    between atoms: _123  and  _126
REMARK   44  A    between atoms: _126  and  _127
REMARK   45  A    between atoms: _130  and  _132
REMARK   46  A    between atoms: _132  and  _133
REMARK   47  A    between atoms: _136  and  _138
REMARK   48  A    between atoms: _138  and  _139
REMARK   49  A    between atoms: _138  and  _141
REMARK   50  A    between atoms: _143  and  _145
REMARK   51  A    between atoms: _145  and  _146
REMARK   52  A    between atoms: _145  and  _148
REMARK   53  A    between atoms: _148  and  _149
REMARK   54  A    between atoms: _154  and  _156
REMARK   55  A    between atoms: _156  and  _157
REMARK   56  A    between atoms: _156  and  _159
REMARK   57  A    between atoms: _159  and  _160
REMARK   58  A    between atoms: _160  and  _161
REMARK   59  A    between atoms: _164  and  _166
REMARK   60  A    between atoms: _166  and  _167
REMARK   61  A    between atoms: _166  and  _169
REMARK   62  A    between atoms: _169  and  _170
REMARK   63  A    between atoms: _170  and  _171
REMARK   64  A    between atoms: _174  and  _176
REMARK   65  A    between atoms: _176  and  _177
REMARK   66  A    between atoms: _176  and  _179
REMARK   67  A    between atoms: _179  and  _180
REMARK   68  A    between atoms: _190  and  _192
REMARK   69  A    between atoms: _192  and  _193
REMARK   70  A    between atoms: _192  and  _195
REMARK   71  A    between atoms: _195  and  _196
REMARK   72  A    between atoms: _199  and  _200
REMARK   73  A    between atoms: _205  and  _207
REMARK   74  A    between atoms: _207  and  _208
REMARK   75  A    between atoms: _207  and  _210
REMARK   76  A    between atoms: _210  and  _211
REMARK   77  A    between atoms: _216  and  _218
REMARK   78  A    between atoms: _218  and  _219
REMARK   79  A    between atoms: _218  and  _221
REMARK   80  A    between atoms: _221  and  _222
REMARK   81  A    between atoms: _232  and  _234
REMARK   82  A    between atoms: _234  and  _235
REMARK   83  A    between atoms: _234  and  _237
REMARK   84  A    between atoms: _237  and  _238
REMARK   85  A    between atoms: _248  and  _250
REMARK   86  A    between atoms: _250  and  _251
REMARK   87  A    between atoms: _250  and  _253
REMARK   88  A    between atoms: _253  and  _254
REMARK   89  A    between atoms: _259  and  _260
REMARK   90  A    between atoms: _262  and  _264
REMARK   91  A    between atoms: _264  and  _265
REMARK   92  A    between atoms: _264  and  _267
REMARK   93  A    between atoms: _267  and  _268
REMARK   94  A    between atoms: _270  and  _272
REMARK   95  A    between atoms: _272  and  _273
REMARK   96  A    between atoms: _272  and  _275
REMARK   97  A    between atoms: _275  and  _276
REMARK   98  A    between atoms: _276  and  _277
REMARK   99  A    between atoms: _280  and  _282
REMARK  100  A    between atoms: _282  and  _283
REMARK  101  A    between atoms: _282  and  _285
REMARK  102  A    between atoms: _285  and  _286
REMARK  103  A    between atoms: _292  and  _294
REMARK  104  A    between atoms: _294  and  _295
REMARK  105  A    between atoms: _297  and  _299
REMARK  106  A    between atoms: _299  and  _300
REMARK  107  A    between atoms: _299  and  _302
REMARK  108  A    between atoms: _302  and  _303
REMARK  109  A    between atoms: _309  and  _311
REMARK  110  A    between atoms: _311  and  _312
REMARK  111  A    between atoms: _311  and  _314
REMARK  112  A    between atoms: _314  and  _315
REMARK  113  A    between atoms: _315  and  _316
REMARK  114  A    between atoms: _321  and  _323
REMARK  115  A    between atoms: _323  and  _324
REMARK  116  A    between atoms: _323  and  _326
REMARK  117  A    between atoms: _326  and  _327
REMARK  118  A    between atoms: _327  and  _328
REMARK  119  A    between atoms: _328  and  _329
REMARK  120  A    between atoms: _329  and  _330
REMARK  121  A    between atoms: _334  and  _336
REMARK  122  A    between atoms: _336  and  _337
REMARK  123  A    between atoms: _336  and  _339
REMARK  124  A    between atoms: _339  and  _340
REMARK  125  A    between atoms: _342  and  _344
REMARK  126  A    between atoms: _344  and  _345
REMARK  127  A    between atoms: _344  and  _347
REMARK  128  A    between atoms: _347  and  _348
REMARK  129  A    between atoms: _358  and  _360
REMARK  130  A    between atoms: _360  and  _361
REMARK  131  A    between atoms: _360  and  _363
REMARK  132  A    between atoms: _363  and  _364
REMARK  133  A    between atoms: _364  and  _365
REMARK  134  A    between atoms: _370  and  _372
REMARK  135  A    between atoms: _372  and  _373
REMARK  136  A    between atoms: _372  and  _375
REMARK  137  A    between atoms: _375  and  _376
REMARK                            x       y       z     vdW  Elec       q    Type
REMARK                         _______ _______ _______ _____ _____    ______ ____
ROOT
ATOM      1  C   ASN A   1      32.289  40.934   1.389  0.00  0.00    +0.239 C 
ATOM      2  O   ASN A   1      33.175  41.796   1.480  0.00  0.00    -0.274 OA
ATOM      3  N   GLU A   2      32.086  40.203   0.281  0.00  0.00    -0.298 N 
ATOM      4  H   GLU A   2      31.474  39.365   0.349  0.00  0.00    +0.150 HD
ENDROOT
BRANCH   1   5
ATOM      5  CA  ASN A   1      31.343  40.664   2.573  0.00  0.00    +0.154 C 
BRANCH   5   6
ATOM      6  N   ASN A   1      32.055  40.152   3.726  0.00  0.00    -0.238 NA
ATOM      7  H   ASN A   1      32.523  40.830   4.361  0.00  0.00    +0.142 HD
ENDBRANCH   5   6
BRANCH   5   8
ATOM      8  CB  ASN A   1      30.599  41.967   2.938  0.00  0.00    +0.111 C 
BRANCH   8   9
ATOM      9  CG  ASN A   1      29.813  42.509   1.785  0.00  0.00    +0.221 C 
ATOM     10  OD1 ASN A   1      28.769  41.951   1.416  0.00  0.00    -0.275 OA
ATOM     11  ND2 ASN A   1      30.342  43.562   1.156  0.00  0.00    -0.329 N 
ATOM     12 HD21 ASN A   1      31.221  43.991   1.509  0.00  0.00    +0.145 HD
ATOM     13 HD22 ASN A   1      29.875  43.953   0.313  0.00  0.00    +0.145 HD
ENDBRANCH   8   9
ENDBRANCH   5   8
ENDBRANCH   1   5
BRANCH   3  14
ATOM     14  CA  GLU A   2      32.690  40.528  -1.039  0.00  0.00    +0.137 C 
BRANCH  14  15
ATOM     15  C   GLU A   2      34.209  40.445  -1.164  0.00  0.00    +0.227 C 
ATOM     16  O   GLU A   2      34.760  40.868  -2.184  0.00  0.00    -0.286 OA
ENDBRANCH  14  15
BRANCH  14  17
ATOM     17  CB  GLU A   2      32.146  41.873  -1.603  0.00  0.00    +0.039 C 
BRANCH  17  18
ATOM     18  CG  GLU A   2      30.662  41.761  -1.982  0.00  0.00    +0.116 C 
BRANCH  18  19
ATOM     19  CD  GLU A   2      29.998  43.118  -2.343  0.00  0.00    +0.365 C 
ATOM     20  OE2 GLU A   2      30.658  44.180  -2.204  0.00  0.00    -0.246 OA
ATOM     21  OE1 GLU A   2      28.795  43.111  -2.717  0.00  0.00    -0.246 OA
ENDBRANCH  18  19
ENDBRANCH  17  18
ENDBRANCH  14  17
ENDBRANCH   3  14
TORSDOF 9
REMARK  Name = ../refined-set-2016/2vjx/2vjx_pocket.pdb
REMARK  137 active torsions:
REMARK  status: ('A' for Active; 'I' for Inactive)
REMARK    1  A    between atoms: _1  and  _3
REMARK    2  A    between atoms: _3  and  _4
REMARK    3  A    between atoms: _3  and  _6
REMARK    4  A    between atoms: _6  and  _7
REMARK    5  A    between atoms: _12  and  _14
REMARK    6  A    between atoms: _14  and  _15
REMARK    7  A    between atoms: _14  and  _17
REMARK    8  A    between atoms: _17  and  _18
REMARK    9  A    between atoms: _28  and  _30
REMARK   10  A    between atoms: _30  and  _31
REMARK   11  A    between atoms: _30  and  _33
REMARK   12  A    between atoms: _33  and  _34
REMARK   13  A    between atoms: _37  and  _39
REMARK   14  A    between atoms: _39  and  _40
REMARK   15  A    between atoms: _39  and  _42
REMARK   16  A    between atoms: _42  and  _43
REMARK   17  A    between atoms: _53  and  _55
REMARK   18  A    between atoms: _55  and  _56
REMARK   19  A    between atoms: _58  and  _60
REMARK   20  A    between atoms: _60  and  _61
REMARK   21  A    between atoms: _60  and  _63
REMARK   22  A    between atoms: _63  and  _64
REMARK   23  A    between atoms: _69  and  _71
REMARK   24  A    between atoms: _71  and  _72
REMARK   25  A    between atoms: _71  and  _74
REMARK   26  A    between atoms: _74  and  _75
REMARK   27  A    between atoms: _78  and  _80
REMARK   28  A    between atoms: _80  and  _81
REMARK   29  A    between atoms: _80  and  _83
REMARK   30  A    between atoms: _83  and  _84
REMARK   31  A    between atoms: _84  and  _85
REMARK   32  A    between atoms: _85  and  _86
REMARK   33  A    between atoms: _95  and  _97
REMARK   34  A    between atoms: _97  and  _98
REMARK   35  A    between atoms: _97  and  _100
REMARK   36  A    between atoms: _100  and  _101
REMARK   37  A    between atoms: _111  and  _113
REMARK   38  A    between atoms: _113  and  _114
REMARK   39  A    between atoms: _116  and  _118
REMARK   40  A    between atoms: _118  and  _119
REMARK   41  A    between atoms: _121  and  _123
REMARK   42  A    between atoms: _123  and  _124
REMARK   43  A    between atoms: _123  and  _126
REMARK   44  A    between atoms: _126  and  _127
REMARK   45  A    between atoms: _130  and  _132
REMARK   46  A    between atoms: _132  and  _133
REMARK   47  A    between atoms: _136  and  _138
REMARK   48  A    between atoms: _138  and  _139
REMARK   49  A    between atoms: _138  and  _141
REMARK   50  A    between atoms: _143  and  _145
REMARK   51  A    between atoms: _145  and  _146
REMARK   52  A    between atoms: _145  and  _148
REMARK   53  A    between atoms: _148  and  _149
REMARK   54  A    between atoms: _154  and  _156
REMARK   55  A    between atoms: _156  and  _157
REMARK   56  A    between atoms: _156  and  _159
REMARK   57  A    between atoms: _159  and  _160
REMARK   58  A    between atoms: _160  and  _161
REMARK   59  A    between atoms: _164  and  _166
REMARK   60  A    between atoms: _166  and  _167
REMARK   61  A    between atoms: _166  and  _169
REMARK   62  A    between atoms: _169  and  _170
REMARK   63  A    between atoms: _170  and  _171
REMARK   64  A    between atoms: _174  and  _176
REMARK   65  A    between atoms: _176  and  _177
REMARK   66  A    between atoms: _176  and  _179
REMARK   67  A    between atoms: _179  and  _180
REMARK   68  A    between atoms: _190  and  _192
REMARK   69  A    between atoms: _192  and  _193
REMARK   70  A    between atoms: _192  and  _195
REMARK   71  A    between atoms: _195  and  _196
REMARK   72  A    between atoms: _199  and  _200
REMARK   73  A    between atoms: _205  and  _207
REMARK   74  A    between atoms: _207  and  _208
REMARK   75  A    between atoms: _207  and  _210
REMARK   76  A    between atoms: _210  and  _211
REMARK   77  A    between atoms: _216  and  _218
REMARK   78  A    between atoms: _218  and  _219
REMARK   79  A    between atoms: _218  and  _221
REMARK   80  A    between atoms: _221  and  _222
REMARK   81  A    between atoms: _232  and  _234
REMARK   82  A    between atoms: _234  and  _235
REMARK   83  A    between atoms: _234  and  _237
REMARK   84  A    between atoms: _237  and  _238
REMARK   85  A    between atoms: _248  and  _250
REMARK   86  A    between atoms: _250  and  _251
REMARK   87  A    between atoms: _250  and  _253
REMARK   88  A    between atoms: _253  and  _254
REMARK   89  A    between atoms: _259  and  _260
REMARK   90  A    between atoms: _262  and  _264
REMARK   91  A    between atoms: _264  and  _265
REMARK   92  A    between atoms: _264  and  _267
REMARK   93  A    between atoms: _267  and  _268
REMARK   94  A    between atoms: _270  and  _272
REMARK   95  A    between atoms: _272  and  _273
REMARK   96  A    between atoms: _272  and  _275
REMARK   97  A    between atoms: _275  and  _276
REMARK   98  A    between atoms: _276  and  _277
REMARK   99  A    between atoms: _280  and  _282
REMARK  100  A    between atoms: _282  and  _283
REMARK  101  A    between atoms: _282  and  _285
REMARK  102  A    between atoms: _285  and  _286
REMARK  103  A    between atoms: _292  and  _294
REMARK  104  A    between atoms: _294  and  _295
REMARK  105  A    between atoms: _297  and  _299
REMARK  106  A    between atoms: _299  and  _300
REMARK  107  A    between atoms: _299  and  _302
REMARK  108  A    between atoms: _302  and  _303
REMARK  109  A    between atoms: _309  and  _311
REMARK  110  A    between atoms: _311  and  _312
REMARK  111  A    between atoms: _311  and  _314
REMARK  112  A    between atoms: _314  and  _315
REMARK  113  A    between atoms: _315  and  _316
REMARK  114  A    between atoms: _321  and  _323
REMARK  115  A    between atoms: _323  and  _324
REMARK  116  A    between atoms: _323  and  _326
REMARK  117  A    between atoms: _326  and  _327
REMARK  118  A    between atoms: _327  and  _328
REMARK  119  A    between atoms: _328  and  _329
REMARK  120  A    between atoms: _329  and  _330
REMARK  121  A    between atoms: _334  and  _336
REMARK  122  A    between atoms: _336  and  _337
REMARK  123  A    between atoms: _336  and  _339
REMARK  124  A    between atoms: _339  and  _340
REMARK  125  A    between atoms: _342  and  _344
REMARK  126  A    between atoms: _344  and  _345
REMARK  127  A    between atoms: _344  and  _347
REMARK  128  A    between atoms: _347  and  _348
REMARK  129  A    between atoms: _358  and  _360
REMARK  130  A    between atoms: _360  and  _361
REMARK  131  A    between atoms: _360  and  _363
REMARK  132  A    between atoms: _363  and  _364
REMARK  133  A    between atoms: _364  and  _365
REMARK  134  A    between atoms: _370  and  _372
REMARK  135  A    between atoms: _372  and  _373
REMARK  136  A    between atoms: _372  and  _375
REMARK  137  A    between atoms: _375  and  _376
REMARK                            x       y       z     vdW  Elec       q    Type
REMARK                         _______ _______ _______ _____ _____    ______ ____
ROOT
ATOM      1  CA  GLU A   1      34.858  38.642  -5.233  0.00  0.00    +0.134 C 
ENDROOT
BRANCH   1   2
ATOM      2  N   GLU A   1      35.255  37.963  -3.992  0.00  0.00    -0.239 NA
ATOM      3  H   GLU A   1      34.583  37.884  -3.202  0.00  0.00    +0.142 HD
ENDBRANCH   1   2
BRANCH   1   4
ATOM      4  C   GLU A   1      35.828  39.767  -5.619  0.00  0.00    +0.224 C 
ATOM      5  O   GLU A   1      36.251  39.878  -6.794  0.00  0.00    -0.287 OA
ENDBRANCH   1   4
BRANCH   1   6
ATOM      6  CB  GLU A   1      33.435  39.188  -5.114  0.00  0.00    +0.037 C 
BRANCH   6   7
ATOM      7  CG  GLU A   1      32.900  39.744  -6.433  0.00  0.00    +0.116 C 
BRANCH   7   8
ATOM      8  CD  GLU A   1      31.408  40.117  -6.371  0.00  0.00    +0.365 C 
ATOM      9  OE2 GLU A   1      30.877  40.338  -5.249  0.00  0.00    -0.246 OA
ATOM     10  OE1 GLU A   1      30.783  40.210  -7.455  0.00  0.00    -0.246 OA
ENDBRANCH   7   8
ENDBRANCH   6   7
ENDBRANCH   1   6
TORSDOF 5
REMARK  Name = ../refined-set-2016/2vjx/2vjx_pocket.pdb
REMARK  137 active torsions:
REMARK  status: ('A' for Active; 'I' for Inactive)
REMARK    1  A    between atoms: _1  and  _3
REMARK    2  A    between atoms: _3  and  _4
REMARK    3  A    between atoms: _3  and  _6
REMARK    4  A    between atoms: _6  and  _7
REMARK    5  A    between atoms: _12  and  _14
REMARK    6  A    between atoms: _14  and  _15
REMARK    7  A    between atoms: _14  and  _17
REMARK    8  A    between atoms: _17  and  _18
REMARK    9  A    between atoms: _28  and  _30
REMARK   10  A    between atoms: _30  and  _31
REMARK   11  A    between atoms: _30  and  _33
REMARK   12  A    between atoms: _33  and  _34
REMARK   13  A    between atoms: _37  and  _39
REMARK   14  A    between atoms: _39  and  _40
REMARK   15  A    between atoms: _39  and  _42
REMARK   16  A    between atoms: _42  and  _43
REMARK   17  A    between atoms: _53  and  _55
REMARK   18  A    between atoms: _55  and  _56
REMARK   19  A    between atoms: _58  and  _60
REMARK   20  A    between atoms: _60  and  _61
REMARK   21  A    between atoms: _60  and  _63
REMARK   22  A    between atoms: _63  and  _64
REMARK   23  A    between atoms: _69  and  _71
REMARK   24  A    between atoms: _71  and  _72
REMARK   25  A    between atoms: _71  and  _74
REMARK   26  A    between atoms: _74  and  _75
REMARK   27  A    between atoms: _78  and  _80
REMARK   28  A    between atoms: _80  and  _81
REMARK   29  A    between atoms: _80  and  _83
REMARK   30  A    between atoms: _83  and  _84
REMARK   31  A    between atoms: _84  and  _85
REMARK   32  A    between atoms: _85  and  _86
REMARK   33  A    between atoms: _95  and  _97
REMARK   34  A    between atoms: _97  and  _98
REMARK   35  A    between atoms: _97  and  _100
REMARK   36  A    between atoms: _100  and  _101
REMARK   37  A    between atoms: _111  and  _113
REMARK   38  A    between atoms: _113  and  _114
REMARK   39  A    between atoms: _116  and  _118
REMARK   40  A    between atoms: _118  and  _119
REMARK   41  A    between atoms: _121  and  _123
REMARK   42  A    between atoms: _123  and  _124
REMARK   43  A    between atoms: _123  and  _126
REMARK   44  A    between atoms: _126  and  _127
REMARK   45  A    between atoms: _130  and  _132
REMARK   46  A    between atoms: _132  and  _133
REMARK   47  A    between atoms: _136  and  _138
REMARK   48  A    between atoms: _138  and  _139
REMARK   49  A    between atoms: _138  and  _141
REMARK   50  A    between atoms: _143  and  _145
REMARK   51  A    between atoms: _145  and  _146
REMARK   52  A    between atoms: _145  and  _148
REMARK   53  A    between atoms: _148  and  _149
REMARK   54  A    between atoms: _154  and  _156
REMARK   55  A    between atoms: _156  and  _157
REMARK   56  A    between atoms: _156  and  _159
REMARK   57  A    between atoms: _159  and  _160
REMARK   58  A    between atoms: _160  and  _161
REMARK   59  A    between atoms: _164  and  _166
REMARK   60  A    between atoms: _166  and  _167
REMARK   61  A    between atoms: _166  and  _169
REMARK   62  A    between atoms: _169  and  _170
REMARK   63  A    between atoms: _170  and  _171
REMARK   64  A    between atoms: _174  and  _176
REMARK   65  A    between atoms: _176  and  _177
REMARK   66  A    between atoms: _176  and  _179
REMARK   67  A    between atoms: _179  and  _180
REMARK   68  A    between atoms: _190  and  _192
REMARK   69  A    between atoms: _192  and  _193
REMARK   70  A    between atoms: _192  and  _195
REMARK   71  A    between atoms: _195  and  _196
REMARK   72  A    between atoms: _199  and  _200
REMARK   73  A    between atoms: _205  and  _207
REMARK   74  A    between atoms: _207  and  _208
REMARK   75  A    between atoms: _207  and  _210
REMARK   76  A    between atoms: _210  and  _211
REMARK   77  A    between atoms: _216  and  _218
REMARK   78  A    between atoms: _218  and  _219
REMARK   79  A    between atoms: _218  and  _221
REMARK   80  A    between atoms: _221  and  _222
REMARK   81  A    between atoms: _232  and  _234
REMARK   82  A    between atoms: _234  and  _235
REMARK   83  A    between atoms: _234  and  _237
REMARK   84  A    between atoms: _237  and  _238
REMARK   85  A    between atoms: _248  and  _250
REMARK   86  A    between atoms: _250  and  _251
REMARK   87  A    between atoms: _250  and  _253
REMARK   88  A    between atoms: _253  and  _254
REMARK   89  A    between atoms: _259  and  _260
REMARK   90  A    between atoms: _262  and  _264
REMARK   91  A    between atoms: _264  and  _265
REMARK   92  A    between atoms: _264  and  _267
REMARK   93  A    between atoms: _267  and  _268
REMARK   94  A    between atoms: _270  and  _272
REMARK   95  A    between atoms: _272  and  _273
REMARK   96  A    between atoms: _272  and  _275
REMARK   97  A    between atoms: _275  and  _276
REMARK   98  A    between atoms: _276  and  _277
REMARK   99  A    between atoms: _280  and  _282
REMARK  100  A    between atoms: _282  and  _283
REMARK  101  A    between atoms: _282  and  _285
REMARK  102  A    between atoms: _285  and  _286
REMARK  103  A    between atoms: _292  and  _294
REMARK  104  A    between atoms: _294  and  _295
REMARK  105  A    between atoms: _297  and  _299
REMARK  106  A    between atoms: _299  and  _300
REMARK  107  A    between atoms: _299  and  _302
REMARK  108  A    between atoms: _302  and  _303
REMARK  109  A    between atoms: _309  and  _311
REMARK  110  A    between atoms: _311  and  _312
REMARK  111  A    between atoms: _311  and  _314
REMARK  112  A    between atoms: _314  and  _315
REMARK  113  A    between atoms: _315  and  _316
REMARK  114  A    between atoms: _321  and  _323
REMARK  115  A    between atoms: _323  and  _324
REMARK  116  A    between atoms: _323  and  _326
REMARK  117  A    between atoms: _326  and  _327
REMARK  118  A    between atoms: _327  and  _328
REMARK  119  A    between atoms: _328  and  _329
REMARK  120  A    between atoms: _329  and  _330
REMARK  121  A    between atoms: _334  and  _336
REMARK  122  A    between atoms: _336  and  _337
REMARK  123  A    between atoms: _336  and  _339
REMARK  124  A    between atoms: _339  and  _340
REMARK  125  A    between atoms: _342  and  _344
REMARK  126  A    between atoms: _344  and  _345
REMARK  127  A    between atoms: _344  and  _347
REMARK  128  A    between atoms: _347  and  _348
REMARK  129  A    between atoms: _358  and  _360
REMARK  130  A    between atoms: _360  and  _361
REMARK  131  A    between atoms: _360  and  _363
REMARK  132  A    between atoms: _363  and  _364
REMARK  133  A    between atoms: _364  and  _365
REMARK  134  A    between atoms: _370  and  _372
REMARK  135  A    between atoms: _372  and  _373
REMARK  136  A    between atoms: _372  and  _375
REMARK  137  A    between atoms: _375  and  _376
REMARK                            x       y       z     vdW  Elec       q    Type
REMARK                         _______ _______ _______ _____ _____    ______ ____
ROOT
ATOM      1  CG  TRP A   1      36.173  44.185  -7.218  0.00  0.00    -0.002 A 
ATOM      2  CD2 TRP A   1      35.504  44.505  -5.992  0.00  0.00    +0.013 A 
ATOM      3  CE3 TRP A   1      35.909  45.114  -4.792  0.00  0.00    +0.001 A 
ATOM      4  CZ3 TRP A   1      34.976  45.226  -3.750  0.00  0.00    +0.000 A 
ATOM      5  CH2 TRP A   1      33.657  44.729  -3.895  0.00  0.00    +0.001 A 
ATOM      6  CZ2 TRP A   1      33.237  44.120  -5.056  0.00  0.00    +0.017 A 
ATOM      7  CE2 TRP A   1      34.172  44.011  -6.102  0.00  0.00    +0.056 A 
ATOM      8  NE1 TRP A   1      34.040  43.448  -7.343  0.00  0.00    -0.352 N 
ATOM      9  HE1 TRP A   1      33.177  43.000  -7.712  0.00  0.00    +0.166 HD
ATOM     10  CD1 TRP A   1      35.225  43.568  -8.023  0.00  0.00    +0.068 A 
ENDROOT
BRANCH   1  11
ATOM     11  CB  TRP A   1      37.599  44.511  -7.579  0.00  0.00    +0.053 C 
BRANCH  11  12
ATOM     12  CA  TRP A   1      38.001  43.988  -8.983  0.00  0.00    +0.137 C 
BRANCH  12  13
ATOM     13  N   TRP A   1      38.016  42.523  -9.067  0.00  0.00    -0.239 NA
ATOM     14  H   TRP A   1      38.482  41.958  -8.329  0.00  0.00    +0.142 HD
ENDBRANCH  12  13
BRANCH  12  15
ATOM     15  C   TRP A   1      39.300  44.608  -9.449  0.00  0.00    +0.224 C 
ATOM     16  O   TRP A   1      39.541  45.809  -9.232  0.00  0.00    -0.287 OA
ENDBRANCH  12  15
ENDBRANCH  11  12
ENDBRANCH   1  11
TORSDOF 4
REMARK  Name = ../refined-set-2016/2vjx/2vjx_pocket.pdb
REMARK  137 active torsions:
REMARK  status: ('A' for Active; 'I' for Inactive)
REMARK    1  A    between atoms: _1  and  _3
REMARK    2  A    between atoms: _3  and  _4
REMARK    3  A    between atoms: _3  and  _6
REMARK    4  A    between atoms: _6  and  _7
REMARK    5  A    between atoms: _12  and  _14
REMARK    6  A    between atoms: _14  and  _15
REMARK    7  A    between atoms: _14  and  _17
REMARK    8  A    between atoms: _17  and  _18
REMARK    9  A    between atoms: _28  and  _30
REMARK   10  A    between atoms: _30  and  _31
REMARK   11  A    between atoms: _30  and  _33
REMARK   12  A    between atoms: _33  and  _34
REMARK   13  A    between atoms: _37  and  _39
REMARK   14  A    between atoms: _39  and  _40
REMARK   15  A    between atoms: _39  and  _42
REMARK   16  A    between atoms: _42  and  _43
REMARK   17  A    between atoms: _53  and  _55
REMARK   18  A    between atoms: _55  and  _56
REMARK   19  A    between atoms: _58  and  _60
REMARK   20  A    between atoms: _60  and  _61
REMARK   21  A    between atoms: _60  and  _63
REMARK   22  A    between atoms: _63  and  _64
REMARK   23  A    between atoms: _69  and  _71
REMARK   24  A    between atoms: _71  and  _72
REMARK   25  A    between atoms: _71  and  _74
REMARK   26  A    between atoms: _74  and  _75
REMARK   27  A    between atoms: _78  and  _80
REMARK   28  A    between atoms: _80  and  _81
REMARK   29  A    between atoms: _80  and  _83
REMARK   30  A    between atoms: _83  and  _84
REMARK   31  A    between atoms: _84  and  _85
REMARK   32  A    between atoms: _85  and  _86
REMARK   33  A    between atoms: _95  and  _97
REMARK   34  A    between atoms: _97  and  _98
REMARK   35  A    between atoms: _97  and  _100
REMARK   36  A    between atoms: _100  and  _101
REMARK   37  A    between atoms: _111  and  _113
REMARK   38  A    between atoms: _113  and  _114
REMARK   39  A    between atoms: _116  and  _118
REMARK   40  A    between atoms: _118  and  _119
REMARK   41  A    between atoms: _121  and  _123
REMARK   42  A    between atoms: _123  and  _124
REMARK   43  A    between atoms: _123  and  _126
REMARK   44  A    between atoms: _126  and  _127
REMARK   45  A    between atoms: _130  and  _132
REMARK   46  A    between atoms: _132  and  _133
REMARK   47  A    between atoms: _136  and  _138
REMARK   48  A    between atoms: _138  and  _139
REMARK   49  A    between atoms: _138  and  _141
REMARK   50  A    between atoms: _143  and  _145
REMARK   51  A    between atoms: _145  and  _146
REMARK   52  A    between atoms: _145  and  _148
REMARK   53  A    between atoms: _148  and  _149
REMARK   54  A    between atoms: _154  and  _156
REMARK   55  A    between atoms: _156  and  _157
REMARK   56  A    between atoms: _156  and  _159
REMARK   57  A    between atoms: _159  and  _160
REMARK   58  A    between atoms: _160  and  _161
REMARK   59  A    between atoms: _164  and  _166
REMARK   60  A    between atoms: _166  and  _167
REMARK   61  A    between atoms: _166  and  _169
REMARK   62  A    between atoms: _169  and  _170
REMARK   63  A    between atoms: _170  and  _171
REMARK   64  A    between atoms: _174  and  _176
REMARK   65  A    between atoms: _176  and  _177
REMARK   66  A    between atoms: _176  and  _179
REMARK   67  A    between atoms: _179  and  _180
REMARK   68  A    between atoms: _190  and  _192
REMARK   69  A    between atoms: _192  and  _193
REMARK   70  A    between atoms: _192  and  _195
REMARK   71  A    between atoms: _195  and  _196
REMARK   72  A    between atoms: _199  and  _200
REMARK   73  A    between atoms: _205  and  _207
REMARK   74  A    between atoms: _207  and  _208
REMARK   75  A    between atoms: _207  and  _210
REMARK   76  A    between atoms: _210  and  _211
REMARK   77  A    between atoms: _216  and  _218
REMARK   78  A    between atoms: _218  and  _219
REMARK   79  A    between atoms: _218  and  _221
REMARK   80  A    between atoms: _221  and  _222
REMARK   81  A    between atoms: _232  and  _234
REMARK   82  A    between atoms: _234  and  _235
REMARK   83  A    between atoms: _234  and  _237
REMARK   84  A    between atoms: _237  and  _238
REMARK   85  A    between atoms: _248  and  _250
REMARK   86  A    between atoms: _250  and  _251
REMARK   87  A    between atoms: _250  and  _253
REMARK   88  A    between atoms: _253  and  _254
REMARK   89  A    between atoms: _259  and  _260
REMARK   90  A    between atoms: _262  and  _264
REMARK   91  A    between atoms: _264  and  _265
REMARK   92  A    between atoms: _264  and  _267
REMARK   93  A    between atoms: _267  and  _268
REMARK   94  A    between atoms: _270  and  _272
REMARK   95  A    between atoms: _272  and  _273
REMARK   96  A    between atoms: _272  and  _275
REMARK   97  A    between atoms: _275  and  _276
REMARK   98  A    between atoms: _276  and  _277
REMARK   99  A    between atoms: _280  and  _282
REMARK  100  A    between atoms: _282  and  _283
REMARK  101  A    between atoms: _282  and  _285
REMARK  102  A    between atoms: _285  and  _286
REMARK  103  A    between atoms: _292  and  _294
REMARK  104  A    between atoms: _294  and  _295
REMARK  105  A    between atoms: _297  and  _299
REMARK  106  A    between atoms: _299  and  _300
REMARK  107  A    between atoms: _299  and  _302
REMARK  108  A    between atoms: _302  and  _303
REMARK  109  A    between atoms: _309  and  _311
REMARK  110  A    between atoms: _311  and  _312
REMARK  111  A    between atoms: _311  and  _314
REMARK  112  A    between atoms: _314  and  _315
REMARK  113  A    between atoms: _315  and  _316
REMARK  114  A    between atoms: _321  and  _323
REMARK  115  A    between atoms: _323  and  _324
REMARK  116  A    between atoms: _323  and  _326
REMARK  117  A    between atoms: _326  and  _327
REMARK  118  A    between atoms: _327  and  _328
REMARK  119  A    between atoms: _328  and  _329
REMARK  120  A    between atoms: _329  and  _330
REMARK  121  A    between atoms: _334  and  _336
REMARK  122  A    between atoms: _336  and  _337
REMARK  123  A    between atoms: _336  and  _339
REMARK  124  A    between atoms: _339  and  _340
REMARK  125  A    between atoms: _342  and  _344
REMARK  126  A    between atoms: _344  and  _345
REMARK  127  A    between atoms: _344  and  _347
REMARK  128  A    between atoms: _347  and  _348
REMARK  129  A    between atoms: _358  and  _360
REMARK  130  A    between atoms: _360  and  _361
REMARK  131  A    between atoms: _360  and  _363
REMARK  132  A    between atoms: _363  and  _364
REMARK  133  A    between atoms: _364  and  _365
REMARK  134  A    between atoms: _370  and  _372
REMARK  135  A    between atoms: _372  and  _373
REMARK  136  A    between atoms: _372  and  _375
REMARK  137  A    between atoms: _375  and  _376
REMARK                            x       y       z     vdW  Elec       q    Type
REMARK                         _______ _______ _______ _____ _____    ______ ____
ROOT
ATOM      1  C   SER A   1      29.457  37.429  -0.622  0.00  0.00    +0.244 C 
ATOM      2  O   SER A   1      29.868  38.519  -0.262  0.00  0.00    -0.273 OA
ATOM      3  N   PRO A   2      29.263  37.128  -1.929  0.00  0.00    -0.273 N 
ATOM      4  CA  PRO A   2      28.807  35.838  -2.462  0.00  0.00    +0.140 C 
ATOM      5  CB  PRO A   2      28.323  36.214  -3.896  0.00  0.00    +0.030 C 
ATOM      6  CG  PRO A   2      29.338  37.322  -4.287  0.00  0.00    +0.024 C 
ATOM      7  CD  PRO A   2      29.547  38.114  -2.987  0.00  0.00    +0.094 C 
ENDROOT
BRANCH   4   8
ATOM      8  C   PRO A   2      30.008  34.873  -2.496  0.00  0.00    +0.227 C 
ATOM      9  O   PRO A   2      31.166  35.312  -2.710  0.00  0.00    -0.286 OA
ENDBRANCH   4   8
BRANCH   1  10
ATOM     10  CA  SER A   1      29.167  36.329   0.420  0.00  0.00    +0.175 C 
BRANCH  10  11
ATOM     11  N   SER A   1      30.380  36.116   1.195  0.00  0.00    -0.236 NA
ATOM     12  H   SER A   1      30.836  36.938   1.641  0.00  0.00    +0.142 HD
ENDBRANCH  10  11
BRANCH  10  13
ATOM     13  CB  SER A   1      28.014  36.748   1.348  0.00  0.00    +0.163 C 
BRANCH  13  14
ATOM     14  OG  SER A   1      26.861  37.125   0.605  0.00  0.00    -0.380 OA
ATOM     15  H   SER A   1      26.560  36.359   0.054  0.00  0.00    +0.211 HD
ENDBRANCH  13  14
ENDBRANCH  10  13
ENDBRANCH   1  10
TORSDOF 5
REMARK  Name = ../refined-set-2016/2vjx/2vjx_pocket.pdb
REMARK  137 active torsions:
REMARK  status: ('A' for Active; 'I' for Inactive)
REMARK    1  A    between atoms: _1  and  _3
REMARK    2  A    between atoms: _3  and  _4
REMARK    3  A    between atoms: _3  and  _6
REMARK    4  A    between atoms: _6  and  _7
REMARK    5  A    between atoms: _12  and  _14
REMARK    6  A    between atoms: _14  and  _15
REMARK    7  A    between atoms: _14  and  _17
REMARK    8  A    between atoms: _17  and  _18
REMARK    9  A    between atoms: _28  and  _30
REMARK   10  A    between atoms: _30  and  _31
REMARK   11  A    between atoms: _30  and  _33
REMARK   12  A    between atoms: _33  and  _34
REMARK   13  A    between atoms: _37  and  _39
REMARK   14  A    between atoms: _39  and  _40
REMARK   15  A    between atoms: _39  and  _42
REMARK   16  A    between atoms: _42  and  _43
REMARK   17  A    between atoms: _53  and  _55
REMARK   18  A    between atoms: _55  and  _56
REMARK   19  A    between atoms: _58  and  _60
REMARK   20  A    between atoms: _60  and  _61
REMARK   21  A    between atoms: _60  and  _63
REMARK   22  A    between atoms: _63  and  _64
REMARK   23  A    between atoms: _69  and  _71
REMARK   24  A    between atoms: _71  and  _72
REMARK   25  A    between atoms: _71  and  _74
REMARK   26  A    between atoms: _74  and  _75
REMARK   27  A    between atoms: _78  and  _80
REMARK   28  A    between atoms: _80  and  _81
REMARK   29  A    between atoms: _80  and  _83
REMARK   30  A    between atoms: _83  and  _84
REMARK   31  A    between atoms: _84  and  _85
REMARK   32  A    between atoms: _85  and  _86
REMARK   33  A    between atoms: _95  and  _97
REMARK   34  A    between atoms: _97  and  _98
REMARK   35  A    between atoms: _97  and  _100
REMARK   36  A    between atoms: _100  and  _101
REMARK   37  A    between atoms: _111  and  _113
REMARK   38  A    between atoms: _113  and  _114
REMARK   39  A    between atoms: _116  and  _118
REMARK   40  A    between atoms: _118  and  _119
REMARK   41  A    between atoms: _121  and  _123
REMARK   42  A    between atoms: _123  and  _124
REMARK   43  A    between atoms: _123  and  _126
REMARK   44  A    between atoms: _126  and  _127
REMARK   45  A    between atoms: _130  and  _132
REMARK   46  A    between atoms: _132  and  _133
REMARK   47  A    between atoms: _136  and  _138
REMARK   48  A    between atoms: _138  and  _139
REMARK   49  A    between atoms: _138  and  _141
REMARK   50  A    between atoms: _143  and  _145
REMARK   51  A    between atoms: _145  and  _146
REMARK   52  A    between atoms: _145  and  _148
REMARK   53  A    between atoms: _148  and  _149
REMARK   54  A    between atoms: _154  and  _156
REMARK   55  A    between atoms: _156  and  _157
REMARK   56  A    between atoms: _156  and  _159
REMARK   57  A    between atoms: _159  and  _160
REMARK   58  A    between atoms: _160  and  _161
REMARK   59  A    between atoms: _164  and  _166
REMARK   60  A    between atoms: _166  and  _167
REMARK   61  A    between atoms: _166  and  _169
REMARK   62  A    between atoms: _169  and  _170
REMARK   63  A    between atoms: _170  and  _171
REMARK   64  A    between atoms: _174  and  _176
REMARK   65  A    between atoms: _176  and  _177
REMARK   66  A    between atoms: _176  and  _179
REMARK   67  A    between atoms: _179  and  _180
REMARK   68  A    between atoms: _190  and  _192
REMARK   69  A    between atoms: _192  and  _193
REMARK   70  A    between atoms: _192  and  _195
REMARK   71  A    between atoms: _195  and  _196
REMARK   72  A    between atoms: _199  and  _200
REMARK   73  A    between atoms: _205  and  _207
REMARK   74  A    between atoms: _207  and  _208
REMARK   75  A    between atoms: _207  and  _210
REMARK   76  A    between atoms: _210  and  _211
REMARK   77  A    between atoms: _216  and  _218
REMARK   78  A    between atoms: _218  and  _219
REMARK   79  A    between atoms: _218  and  _221
REMARK   80  A    between atoms: _221  and  _222
REMARK   81  A    between atoms: _232  and  _234
REMARK   82  A    between atoms: _234  and  _235
REMARK   83  A    between atoms: _234  and  _237
REMARK   84  A    between atoms: _237  and  _238
REMARK   85  A    between atoms: _248  and  _250
REMARK   86  A    between atoms: _250  and  _251
REMARK   87  A    between atoms: _250  and  _253
REMARK   88  A    between atoms: _253  and  _254
REMARK   89  A    between atoms: _259  and  _260
REMARK   90  A    between atoms: _262  and  _264
REMARK   91  A    between atoms: _264  and  _265
REMARK   92  A    between atoms: _264  and  _267
REMARK   93  A    between atoms: _267  and  _268
REMARK   94  A    between atoms: _270  and  _272
REMARK   95  A    between atoms: _272  and  _273
REMARK   96  A    between atoms: _272  and  _275
REMARK   97  A    between atoms: _275  and  _276
REMARK   98  A    between atoms: _276  and  _277
REMARK   99  A    between atoms: _280  and  _282
REMARK  100  A    between atoms: _282  and  _283
REMARK  101  A    between atoms: _282  and  _285
REMARK  102  A    between atoms: _285  and  _286
REMARK  103  A    between atoms: _292  and  _294
REMARK  104  A    between atoms: _294  and  _295
REMARK  105  A    between atoms: _297  and  _299
REMARK  106  A    between atoms: _299  and  _300
REMARK  107  A    between atoms: _299  and  _302
REMARK  108  A    between atoms: _302  and  _303
REMARK  109  A    between atoms: _309  and  _311
REMARK  110  A    between atoms: _311  and  _312
REMARK  111  A    between atoms: _311  and  _314
REMARK  112  A    between atoms: _314  and  _315
REMARK  113  A    between atoms: _315  and  _316
REMARK  114  A    between atoms: _321  and  _323
REMARK  115  A    between atoms: _323  and  _324
REMARK  116  A    between atoms: _323  and  _326
REMARK  117  A    between atoms: _326  and  _327
REMARK  118  A    between atoms: _327  and  _328
REMARK  119  A    between atoms: _328  and  _329
REMARK  120  A    between atoms: _329  and  _330
REMARK  121  A    between atoms: _334  and  _336
REMARK  122  A    between atoms: _336  and  _337
REMARK  123  A    between atoms: _336  and  _339
REMARK  124  A    between atoms: _339  and  _340
REMARK  125  A    between atoms: _342  and  _344
REMARK  126  A    between atoms: _344  and  _345
REMARK  127  A    between atoms: _344  and  _347
REMARK  128  A    between atoms: _347  and  _348
REMARK  129  A    between atoms: _358  and  _360
REMARK  130  A    between atoms: _360  and  _361
REMARK  131  A    between atoms: _360  and  _363
REMARK  132  A    between atoms: _363  and  _364
REMARK  133  A    between atoms: _364  and  _365
REMARK  134  A    between atoms: _370  and  _372
REMARK  135  A    between atoms: _372  and  _373
REMARK  136  A    between atoms: _372  and  _375
REMARK  137  A    between atoms: _375  and  _376
REMARK                            x       y       z     vdW  Elec       q    Type
REMARK                         _______ _______ _______ _____ _____    ______ ____
ROOT
ATOM      1  CB  HIS A   1      26.174  40.607  -4.474  0.00  0.00    +0.072 C 
ENDROOT
BRANCH   1   2
ATOM      2  CG  HIS A   1      26.489  40.202  -3.062  0.00  0.00    +0.082 A 
ATOM      3  ND1 HIS A   1      27.314  40.950  -2.250  0.00  0.00    -0.227 NA
ATOM      4  CE1 HIS A   1      27.422  40.364  -1.068  0.00  0.00    +0.199 A 
ATOM      5  NE2 HIS A   1      26.661  39.284  -1.071  0.00  0.00    -0.221 NA
ATOM      6  CD2 HIS A   1      26.082  39.149  -2.316  0.00  0.00    +0.115 A 
ENDBRANCH   1   2
BRANCH   1   7
ATOM      7  CA  HIS A   1      24.968  39.859  -5.090  0.00  0.00    +0.139 C 
BRANCH   7   8
ATOM      8  N   HIS A   1      25.214  38.395  -5.188  0.00  0.00    -0.239 NA
ATOM      9  H   HIS A   1      26.153  38.053  -5.476  0.00  0.00    +0.142 HD
ENDBRANCH   7   8
BRANCH   7  10
ATOM     10  C   HIS A   1      24.807  40.348  -6.518  0.00  0.00    +0.224 C 
ATOM     11  O   HIS A   1      25.799  40.679  -7.192  0.00  0.00    -0.287 OA
ENDBRANCH   7  10
ENDBRANCH   1   7
TORSDOF 4
REMARK  Name = ../refined-set-2016/2vjx/2vjx_pocket.pdb
REMARK  137 active torsions:
REMARK  status: ('A' for Active; 'I' for Inactive)
REMARK    1  A    between atoms: _1  and  _3
REMARK    2  A    between atoms: _3  and  _4
REMARK    3  A    between atoms: _3  and  _6
REMARK    4  A    between atoms: _6  and  _7
REMARK    5  A    between atoms: _12  and  _14
REMARK    6  A    between atoms: _14  and  _15
REMARK    7  A    between atoms: _14  and  _17
REMARK    8  A    between atoms: _17  and  _18
REMARK    9  A    between atoms: _28  and  _30
REMARK   10  A    between atoms: _30  and  _31
REMARK   11  A    between atoms: _30  and  _33
REMARK   12  A    between atoms: _33  and  _34
REMARK   13  A    between atoms: _37  and  _39
REMARK   14  A    between atoms: _39  and  _40
REMARK   15  A    between atoms: _39  and  _42
REMARK   16  A    between atoms: _42  and  _43
REMARK   17  A    between atoms: _53  and  _55
REMARK   18  A    between atoms: _55  and  _56
REMARK   19  A    between atoms: _58  and  _60
REMARK   20  A    between atoms: _60  and  _61
REMARK   21  A    between atoms: _60  and  _63
REMARK   22  A    between atoms: _63  and  _64
REMARK   23  A    between atoms: _69  and  _71
REMARK   24  A    between atoms: _71  and  _72
REMARK   25  A    between atoms: _71  and  _74
REMARK   26  A    between atoms: _74  and  _75
REMARK   27  A    between atoms: _78  and  _80
REMARK   28  A    between atoms: _80  and  _81
REMARK   29  A    between atoms: _80  and  _83
REMARK   30  A    between atoms: _83  and  _84
REMARK   31  A    between atoms: _84  and  _85
REMARK   32  A    between atoms: _85  and  _86
REMARK   33  A    between atoms: _95  and  _97
REMARK   34  A    between atoms: _97  and  _98
REMARK   35  A    between atoms: _97  and  _100
REMARK   36  A    between atoms: _100  and  _101
REMARK   37  A    between atoms: _111  and  _113
REMARK   38  A    between atoms: _113  and  _114
REMARK   39  A    between atoms: _116  and  _118
REMARK   40  A    between atoms: _118  and  _119
REMARK   41  A    between atoms: _121  and  _123
REMARK   42  A    between atoms: _123  and  _124
REMARK   43  A    between atoms: _123  and  _126
REMARK   44  A    between atoms: _126  and  _127
REMARK   45  A    between atoms: _130  and  _132
REMARK   46  A    between atoms: _132  and  _133
REMARK   47  A    between atoms: _136  and  _138
REMARK   48  A    between atoms: _138  and  _139
REMARK   49  A    between atoms: _138  and  _141
REMARK   50  A    between atoms: _143  and  _145
REMARK   51  A    between atoms: _145  and  _146
REMARK   52  A    between atoms: _145  and  _148
REMARK   53  A    between atoms: _148  and  _149
REMARK   54  A    between atoms: _154  and  _156
REMARK   55  A    between atoms: _156  and  _157
REMARK   56  A    between atoms: _156  and  _159
REMARK   57  A    between atoms: _159  and  _160
REMARK   58  A    between atoms: _160  and  _161
REMARK   59  A    between atoms: _164  and  _166
REMARK   60  A    between atoms: _166  and  _167
REMARK   61  A    between atoms: _166  and  _169
REMARK   62  A    between atoms: _169  and  _170
REMARK   63  A    between atoms: _170  and  _171
REMARK   64  A    between atoms: _174  and  _176
REMARK   65  A    between atoms: _176  and  _177
REMARK   66  A    between atoms: _176  and  _179
REMARK   67  A    between atoms: _179  and  _180
REMARK   68  A    between atoms: _190  and  _192
REMARK   69  A    between atoms: _192  and  _193
REMARK   70  A    between atoms: _192  and  _195
REMARK   71  A    between atoms: _195  and  _196
REMARK   72  A    between atoms: _199  and  _200
REMARK   73  A    between atoms: _205  and  _207
REMARK   74  A    between atoms: _207  and  _208
REMARK   75  A    between atoms: _207  and  _210
REMARK   76  A    between atoms: _210  and  _211
REMARK   77  A    between atoms: _216  and  _218
REMARK   78  A    between atoms: _218  and  _219
REMARK   79  A    between atoms: _218  and  _221
REMARK   80  A    between atoms: _221  and  _222
REMARK   81  A    between atoms: _232  and  _234
REMARK   82  A    between atoms: _234  and  _235
REMARK   83  A    between atoms: _234  and  _237
REMARK   84  A    between atoms: _237  and  _238
REMARK   85  A    between atoms: _248  and  _250
REMARK   86  A    between atoms: _250  and  _251
REMARK   87  A    between atoms: _250  and  _253
REMARK   88  A    between atoms: _253  and  _254
REMARK   89  A    between atoms: _259  and  _260
REMARK   90  A    between atoms: _262  and  _264
REMARK   91  A    between atoms: _264  and  _265
REMARK   92  A    between atoms: _264  and  _267
REMARK   93  A    between atoms: _267  and  _268
REMARK   94  A    between atoms: _270  and  _272
REMARK   95  A    between atoms: _272  and  _273
REMARK   96  A    between atoms: _272  and  _275
REMARK   97  A    between atoms: _275  and  _276
REMARK   98  A    between atoms: _276  and  _277
REMARK   99  A    between atoms: _280  and  _282
REMARK  100  A    between atoms: _282  and  _283
REMARK  101  A    between atoms: _282  and  _285
REMARK  102  A    between atoms: _285  and  _286
REMARK  103  A    between atoms: _292  and  _294
REMARK  104  A    between atoms: _294  and  _295
REMARK  105  A    between atoms: _297  and  _299
REMARK  106  A    between atoms: _299  and  _300
REMARK  107  A    between atoms: _299  and  _302
REMARK  108  A    between atoms: _302  and  _303
REMARK  109  A    between atoms: _309  and  _311
REMARK  110  A    between atoms: _311  and  _312
REMARK  111  A    between atoms: _311  and  _314
REMARK  112  A    between atoms: _314  and  _315
REMARK  113  A    between atoms: _315  and  _316
REMARK  114  A    between atoms: _321  and  _323
REMARK  115  A    between atoms: _323  and  _324
REMARK  116  A    between atoms: _323  and  _326
REMARK  117  A    between atoms: _326  and  _327
REMARK  118  A    between atoms: _327  and  _328
REMARK  119  A    between atoms: _328  and  _329
REMARK  120  A    between atoms: _329  and  _330
REMARK  121  A    between atoms: _334  and  _336
REMARK  122  A    between atoms: _336  and  _337
REMARK  123  A    between atoms: _336  and  _339
REMARK  124  A    between atoms: _339  and  _340
REMARK  125  A    between atoms: _342  and  _344
REMARK  126  A    between atoms: _344  and  _345
REMARK  127  A    between atoms: _344  and  _347
REMARK  128  A    between atoms: _347  and  _348
REMARK  129  A    between atoms: _358  and  _360
REMARK  130  A    between atoms: _360  and  _361
REMARK  131  A    between atoms: _360  and  _363
REMARK  132  A    between atoms: _363  and  _364
REMARK  133  A    between atoms: _364  and  _365
REMARK  134  A    between atoms: _370  and  _372
REMARK  135  A    between atoms: _372  and  _373
REMARK  136  A    between atoms: _372  and  _375
REMARK  137  A    between atoms: _375  and  _376
REMARK                            x       y       z     vdW  Elec       q    Type
REMARK                         _______ _______ _______ _____ _____    ______ ____
ROOT
ATOM      1  CG  TRP A   1      25.652  44.877  -6.866  0.00  0.00    -0.002 A 
ATOM      2  CD1 TRP A   1      26.115  44.056  -5.894  0.00  0.00    +0.068 A 
ATOM      3  NE1 TRP A   1      25.581  44.424  -4.669  0.00  0.00    -0.352 N 
ATOM      4  HE1 TRP A   1      25.789  43.966  -3.759  0.00  0.00    +0.166 HD
ATOM      5  CE2 TRP A   1      24.736  45.488  -4.848  0.00  0.00    +0.056 A 
ATOM      6  CZ2 TRP A   1      23.988  46.230  -3.898  0.00  0.00    +0.017 A 
ATOM      7  CH2 TRP A   1      23.211  47.278  -4.372  0.00  0.00    +0.001 A 
ATOM      8  CZ3 TRP A   1      23.182  47.615  -5.764  0.00  0.00    +0.000 A 
ATOM      9  CE3 TRP A   1      23.965  46.893  -6.693  0.00  0.00    +0.001 A 
ATOM     10  CD2 TRP A   1      24.750  45.807  -6.229  0.00  0.00    +0.013 A 
ENDROOT
BRANCH   1  11
ATOM     11  CB  TRP A   1      25.943  44.776  -8.332  0.00  0.00    +0.053 C 
BRANCH  11  12
ATOM     12  CA  TRP A   1      24.678  44.233  -9.045  0.00  0.00    +0.137 C 
BRANCH  12  13
ATOM     13  N   TRP A   1      24.518  42.807  -8.807  0.00  0.00    -0.239 NA
ATOM     14  H   TRP A   1      25.360  42.198  -8.845  0.00  0.00    +0.142 HD
ENDBRANCH  12  13
BRANCH  12  15
ATOM     15  C   TRP A   1      24.649  44.570 -10.541  0.00  0.00    +0.224 C 
ATOM     16  O   TRP A   1      25.119  45.621 -10.961  0.00  0.00    -0.287 OA
ENDBRANCH  12  15
ENDBRANCH  11  12
ENDBRANCH   1  11
TORSDOF 4
REMARK  Name = ../refined-set-2016/2vjx/2vjx_pocket.pdb
REMARK  137 active torsions:
REMARK  status: ('A' for Active; 'I' for Inactive)
REMARK    1  A    between atoms: _1  and  _3
REMARK    2  A    between atoms: _3  and  _4
REMARK    3  A    between atoms: _3  and  _6
REMARK    4  A    between atoms: _6  and  _7
REMARK    5  A    between atoms: _12  and  _14
REMARK    6  A    between atoms: _14  and  _15
REMARK    7  A    between atoms: _14  and  _17
REMARK    8  A    between atoms: _17  and  _18
REMARK    9  A    between atoms: _28  and  _30
REMARK   10  A    between atoms: _30  and  _31
REMARK   11  A    between atoms: _30  and  _33
REMARK   12  A    between atoms: _33  and  _34
REMARK   13  A    between atoms: _37  and  _39
REMARK   14  A    between atoms: _39  and  _40
REMARK   15  A    between atoms: _39  and  _42
REMARK   16  A    between atoms: _42  and  _43
REMARK   17  A    between atoms: _53  and  _55
REMARK   18  A    between atoms: _55  and  _56
REMARK   19  A    between atoms: _58  and  _60
REMARK   20  A    between atoms: _60  and  _61
REMARK   21  A    between atoms: _60  and  _63
REMARK   22  A    between atoms: _63  and  _64
REMARK   23  A    between atoms: _69  and  _71
REMARK   24  A    between atoms: _71  and  _72
REMARK   25  A    between atoms: _71  and  _74
REMARK   26  A    between atoms: _74  and  _75
REMARK   27  A    between atoms: _78  and  _80
REMARK   28  A    between atoms: _80  and  _81
REMARK   29  A    between atoms: _80  and  _83
REMARK   30  A    between atoms: _83  and  _84
REMARK   31  A    between atoms: _84  and  _85
REMARK   32  A    between atoms: _85  and  _86
REMARK   33  A    between atoms: _95  and  _97
REMARK   34  A    between atoms: _97  and  _98
REMARK   35  A    between atoms: _97  and  _100
REMARK   36  A    between atoms: _100  and  _101
REMARK   37  A    between atoms: _111  and  _113
REMARK   38  A    between atoms: _113  and  _114
REMARK   39  A    between atoms: _116  and  _118
REMARK   40  A    between atoms: _118  and  _119
REMARK   41  A    between atoms: _121  and  _123
REMARK   42  A    between atoms: _123  and  _124
REMARK   43  A    between atoms: _123  and  _126
REMARK   44  A    between atoms: _126  and  _127
REMARK   45  A    between atoms: _130  and  _132
REMARK   46  A    between atoms: _132  and  _133
REMARK   47  A    between atoms: _136  and  _138
REMARK   48  A    between atoms: _138  and  _139
REMARK   49  A    between atoms: _138  and  _141
REMARK   50  A    between atoms: _143  and  _145
REMARK   51  A    between atoms: _145  and  _146
REMARK   52  A    between atoms: _145  and  _148
REMARK   53  A    between atoms: _148  and  _149
REMARK   54  A    between atoms: _154  and  _156
REMARK   55  A    between atoms: _156  and  _157
REMARK   56  A    between atoms: _156  and  _159
REMARK   57  A    between atoms: _159  and  _160
REMARK   58  A    between atoms: _160  and  _161
REMARK   59  A    between atoms: _164  and  _166
REMARK   60  A    between atoms: _166  and  _167
REMARK   61  A    between atoms: _166  and  _169
REMARK   62  A    between atoms: _169  and  _170
REMARK   63  A    between atoms: _170  and  _171
REMARK   64  A    between atoms: _174  and  _176
REMARK   65  A    between atoms: _176  and  _177
REMARK   66  A    between atoms: _176  and  _179
REMARK   67  A    between atoms: _179  and  _180
REMARK   68  A    between atoms: _190  and  _192
REMARK   69  A    between atoms: _192  and  _193
REMARK   70  A    between atoms: _192  and  _195
REMARK   71  A    between atoms: _195  and  _196
REMARK   72  A    between atoms: _199  and  _200
REMARK   73  A    between atoms: _205  and  _207
REMARK   74  A    between atoms: _207  and  _208
REMARK   75  A    between atoms: _207  and  _210
REMARK   76  A    between atoms: _210  and  _211
REMARK   77  A    between atoms: _216  and  _218
REMARK   78  A    between atoms: _218  and  _219
REMARK   79  A    between atoms: _218  and  _221
REMARK   80  A    between atoms: _221  and  _222
REMARK   81  A    between atoms: _232  and  _234
REMARK   82  A    between atoms: _234  and  _235
REMARK   83  A    between atoms: _234  and  _237
REMARK   84  A    between atoms: _237  and  _238
REMARK   85  A    between atoms: _248  and  _250
REMARK   86  A    between atoms: _250  and  _251
REMARK   87  A    between atoms: _250  and  _253
REMARK   88  A    between atoms: _253  and  _254
REMARK   89  A    between atoms: _259  and  _260
REMARK   90  A    between atoms: _262  and  _264
REMARK   91  A    between atoms: _264  and  _265
REMARK   92  A    between atoms: _264  and  _267
REMARK   93  A    between atoms: _267  and  _268
REMARK   94  A    between atoms: _270  and  _272
REMARK   95  A    between atoms: _272  and  _273
REMARK   96  A    between atoms: _272  and  _275
REMARK   97  A    between atoms: _275  and  _276
REMARK   98  A    between atoms: _276  and  _277
REMARK   99  A    between atoms: _280  and  _282
REMARK  100  A    between atoms: _282  and  _283
REMARK  101  A    between atoms: _282  and  _285
REMARK  102  A    between atoms: _285  and  _286
REMARK  103  A    between atoms: _292  and  _294
REMARK  104  A    between atoms: _294  and  _295
REMARK  105  A    between atoms: _297  and  _299
REMARK  106  A    between atoms: _299  and  _300
REMARK  107  A    between atoms: _299  and  _302
REMARK  108  A    between atoms: _302  and  _303
REMARK  109  A    between atoms: _309  and  _311
REMARK  110  A    between atoms: _311  and  _312
REMARK  111  A    between atoms: _311  and  _314
REMARK  112  A    between atoms: _314  and  _315
REMARK  113  A    between atoms: _315  and  _316
REMARK  114  A    between atoms: _321  and  _323
REMARK  115  A    between atoms: _323  and  _324
REMARK  116  A    between atoms: _323  and  _326
REMARK  117  A    between atoms: _326  and  _327
REMARK  118  A    between atoms: _327  and  _328
REMARK  119  A    between atoms: _328  and  _329
REMARK  120  A    between atoms: _329  and  _330
REMARK  121  A    between atoms: _334  and  _336
REMARK  122  A    between atoms: _336  and  _337
REMARK  123  A    between atoms: _336  and  _339
REMARK  124  A    between atoms: _339  and  _340
REMARK  125  A    between atoms: _342  and  _344
REMARK  126  A    between atoms: _344  and  _345
REMARK  127  A    between atoms: _344  and  _347
REMARK  128  A    between atoms: _347  and  _348
REMARK  129  A    between atoms: _358  and  _360
REMARK  130  A    between atoms: _360  and  _361
REMARK  131  A    between atoms: _360  and  _363
REMARK  132  A    between atoms: _363  and  _364
REMARK  133  A    between atoms: _364  and  _365
REMARK  134  A    between atoms: _370  and  _372
REMARK  135  A    between atoms: _372  and  _373
REMARK  136  A    between atoms: _372  and  _375
REMARK  137  A    between atoms: _375  and  _376
REMARK                            x       y       z     vdW  Elec       q    Type
REMARK                         _______ _______ _______ _____ _____    ______ ____
ROOT
ATOM      1  C   TRP A   1      23.794  49.544 -11.327  0.00  0.00    +0.239 C 
ATOM      2  N   TYR A   2      24.799  48.835 -10.798  0.00  0.00    -0.298 N 
ATOM      3  H   TYR A   2      24.608  48.191 -10.004  0.00  0.00    +0.150 HD
ATOM      4  O   TRP A   1      23.935  50.205 -12.379  0.00  0.00    -0.274 OA
ENDROOT
BRANCH   1   5
ATOM      5  CA  TRP A   1      22.405  49.481 -10.660  0.00  0.00    +0.149 C 
BRANCH   5   6
ATOM      6  N   TRP A   1      21.585  48.405 -11.271  0.00  0.00    -0.238 NA
ATOM      7  H   TRP A   1      20.876  48.675 -11.982  0.00  0.00    +0.142 HD
ENDBRANCH   5   6
BRANCH   5   8
ATOM      8  CB  TRP A   1      22.405  49.441  -9.087  0.00  0.00    +0.054 C 
BRANCH   8   9
ATOM      9  CG  TRP A   1      23.089  50.688  -8.532  0.00  0.00    -0.002 A 
ATOM     10  CD1 TRP A   1      24.377  50.770  -8.068  0.00  0.00    +0.068 A 
ATOM     11  NE1 TRP A   1      24.651  52.066  -7.687  0.00  0.00    -0.352 N 
ATOM     12  HE1 TRP A   1      25.551  52.395  -7.282  0.00  0.00    +0.166 HD
ATOM     13  CE2 TRP A   1      23.553  52.857  -7.924  0.00  0.00    +0.056 A 
ATOM     14  CZ2 TRP A   1      23.369  54.249  -7.730  0.00  0.00    +0.017 A 
ATOM     15  CH2 TRP A   1      22.151  54.784  -8.073  0.00  0.00    +0.001 A 
ATOM     16  CZ3 TRP A   1      21.114  53.970  -8.614  0.00  0.00    +0.000 A 
ATOM     17  CE3 TRP A   1      21.308  52.610  -8.810  0.00  0.00    +0.001 A 
ATOM     18  CD2 TRP A   1      22.549  52.031  -8.464  0.00  0.00    +0.013 A 
ENDBRANCH   8   9
ENDBRANCH   5   8
ENDBRANCH   1   5
BRANCH   2  19
ATOM     19  CA  TYR A   2      26.176  48.952 -11.324  0.00  0.00    +0.141 C 
BRANCH  19  20
ATOM     20  C   TYR A   2      26.290  48.528 -12.794  0.00  0.00    +0.227 C 
ATOM     21  O   TYR A   2      27.008  49.177 -13.555  0.00  0.00    -0.286 OA
ENDBRANCH  19  20
BRANCH  19  22
ATOM     22  CB  TYR A   2      27.197  48.194 -10.475  0.00  0.00    +0.054 C 
BRANCH  22  23
ATOM     23  CG  TYR A   2      27.397  48.912  -9.150  0.00  0.00    -0.020 A 
ATOM     24  CD2 TYR A   2      27.107  48.298  -7.931  0.00  0.00    -0.001 A 
ATOM     25  CE2 TYR A   2      27.279  49.030  -6.686  0.00  0.00    +0.036 A 
ATOM     26  CZ  TYR A   2      27.708  50.360  -6.732  0.00  0.00    +0.134 A 
ATOM     27  CE1 TYR A   2      27.960  50.976  -7.952  0.00  0.00    +0.036 A 
ATOM     28  CD1 TYR A   2      27.799  50.259  -9.139  0.00  0.00    -0.001 A 
BRANCH  26  29
ATOM     29  OH  TYR A   2      27.852  51.130  -5.598  0.00  0.00    -0.506 OA
ATOM     30  HH  TYR A   2      28.164  52.035  -5.852  0.00  0.00    +0.292 HD
ENDBRANCH  26  29
ENDBRANCH  22  23
ENDBRANCH  19  22
ENDBRANCH   2  19
TORSDOF 9
REMARK  Name = ../refined-set-2016/2vjx/2vjx_pocket.pdb
REMARK  137 active torsions:
REMARK  status: ('A' for Active; 'I' for Inactive)
REMARK    1  A    between atoms: _1  and  _3
REMARK    2  A    between atoms: _3  and  _4
REMARK    3  A    between atoms: _3  and  _6
REMARK    4  A    between atoms: _6  and  _7
REMARK    5  A    between atoms: _12  and  _14
REMARK    6  A    between atoms: _14  and  _15
REMARK    7  A    between atoms: _14  and  _17
REMARK    8  A    between atoms: _17  and  _18
REMARK    9  A    between atoms: _28  and  _30
REMARK   10  A    between atoms: _30  and  _31
REMARK   11  A    between atoms: _30  and  _33
REMARK   12  A    between atoms: _33  and  _34
REMARK   13  A    between atoms: _37  and  _39
REMARK   14  A    between atoms: _39  and  _40
REMARK   15  A    between atoms: _39  and  _42
REMARK   16  A    between atoms: _42  and  _43
REMARK   17  A    between atoms: _53  and  _55
REMARK   18  A    between atoms: _55  and  _56
REMARK   19  A    between atoms: _58  and  _60
REMARK   20  A    between atoms: _60  and  _61
REMARK   21  A    between atoms: _60  and  _63
REMARK   22  A    between atoms: _63  and  _64
REMARK   23  A    between atoms: _69  and  _71
REMARK   24  A    between atoms: _71  and  _72
REMARK   25  A    between atoms: _71  and  _74
REMARK   26  A    between atoms: _74  and  _75
REMARK   27  A    between atoms: _78  and  _80
REMARK   28  A    between atoms: _80  and  _81
REMARK   29  A    between atoms: _80  and  _83
REMARK   30  A    between atoms: _83  and  _84
REMARK   31  A    between atoms: _84  and  _85
REMARK   32  A    between atoms: _85  and  _86
REMARK   33  A    between atoms: _95  and  _97
REMARK   34  A    between atoms: _97  and  _98
REMARK   35  A    between atoms: _97  and  _100
REMARK   36  A    between atoms: _100  and  _101
REMARK   37  A    between atoms: _111  and  _113
REMARK   38  A    between atoms: _113  and  _114
REMARK   39  A    between atoms: _116  and  _118
REMARK   40  A    between atoms: _118  and  _119
REMARK   41  A    between atoms: _121  and  _123
REMARK   42  A    between atoms: _123  and  _124
REMARK   43  A    between atoms: _123  and  _126
REMARK   44  A    between atoms: _126  and  _127
REMARK   45  A    between atoms: _130  and  _132
REMARK   46  A    between atoms: _132  and  _133
REMARK   47  A    between atoms: _136  and  _138
REMARK   48  A    between atoms: _138  and  _139
REMARK   49  A    between atoms: _138  and  _141
REMARK   50  A    between atoms: _143  and  _145
REMARK   51  A    between atoms: _145  and  _146
REMARK   52  A    between atoms: _145  and  _148
REMARK   53  A    between atoms: _148  and  _149
REMARK   54  A    between atoms: _154  and  _156
REMARK   55  A    between atoms: _156  and  _157
REMARK   56  A    between atoms: _156  and  _159
REMARK   57  A    between atoms: _159  and  _160
REMARK   58  A    between atoms: _160  and  _161
REMARK   59  A    between atoms: _164  and  _166
REMARK   60  A    between atoms: _166  and  _167
REMARK   61  A    between atoms: _166  and  _169
REMARK   62  A    between atoms: _169  and  _170
REMARK   63  A    between atoms: _170  and  _171
REMARK   64  A    between atoms: _174  and  _176
REMARK   65  A    between atoms: _176  and  _177
REMARK   66  A    between atoms: _176  and  _179
REMARK   67  A    between atoms: _179  and  _180
REMARK   68  A    between atoms: _190  and  _192
REMARK   69  A    between atoms: _192  and  _193
REMARK   70  A    between atoms: _192  and  _195
REMARK   71  A    between atoms: _195  and  _196
REMARK   72  A    between atoms: _199  and  _200
REMARK   73  A    between atoms: _205  and  _207
REMARK   74  A    between atoms: _207  and  _208
REMARK   75  A    between atoms: _207  and  _210
REMARK   76  A    between atoms: _210  and  _211
REMARK   77  A    between atoms: _216  and  _218
REMARK   78  A    between atoms: _218  and  _219
REMARK   79  A    between atoms: _218  and  _221
REMARK   80  A    between atoms: _221  and  _222
REMARK   81  A    between atoms: _232  and  _234
REMARK   82  A    between atoms: _234  and  _235
REMARK   83  A    between atoms: _234  and  _237
REMARK   84  A    between atoms: _237  and  _238
REMARK   85  A    between atoms: _248  and  _250
REMARK   86  A    between atoms: _250  and  _251
REMARK   87  A    between atoms: _250  and  _253
REMARK   88  A    between atoms: _253  and  _254
REMARK   89  A    between atoms: _259  and  _260
REMARK   90  A    between atoms: _262  and  _264
REMARK   91  A    between atoms: _264  and  _265
REMARK   92  A    between atoms: _264  and  _267
REMARK   93  A    between atoms: _267  and  _268
REMARK   94  A    between atoms: _270  and  _272
REMARK   95  A    between atoms: _272  and  _273
REMARK   96  A    between atoms: _272  and  _275
REMARK   97  A    between atoms: _275  and  _276
REMARK   98  A    between atoms: _276  and  _277
REMARK   99  A    between atoms: _280  and  _282
REMARK  100  A    between atoms: _282  and  _283
REMARK  101  A    between atoms: _282  and  _285
REMARK  102  A    between atoms: _285  and  _286
REMARK  103  A    between atoms: _292  and  _294
REMARK  104  A    between atoms: _294  and  _295
REMARK  105  A    between atoms: _297  and  _299
REMARK  106  A    between atoms: _299  and  _300
REMARK  107  A    between atoms: _299  and  _302
REMARK  108  A    between atoms: _302  and  _303
REMARK  109  A    between atoms: _309  and  _311
REMARK  110  A    between atoms: _311  and  _312
REMARK  111  A    between atoms: _311  and  _314
REMARK  112  A    between atoms: _314  and  _315
REMARK  113  A    between atoms: _315  and  _316
REMARK  114  A    between atoms: _321  and  _323
REMARK  115  A    between atoms: _323  and  _324
REMARK  116  A    between atoms: _323  and  _326
REMARK  117  A    between atoms: _326  and  _327
REMARK  118  A    between atoms: _327  and  _328
REMARK  119  A    between atoms: _328  and  _329
REMARK  120  A    between atoms: _329  and  _330
REMARK  121  A    between atoms: _334  and  _336
REMARK  122  A    between atoms: _336  and  _337
REMARK  123  A    between atoms: _336  and  _339
REMARK  124  A    between atoms: _339  and  _340
REMARK  125  A    between atoms: _342  and  _344
REMARK  126  A    between atoms: _344  and  _345
REMARK  127  A    between atoms: _344  and  _347
REMARK  128  A    between atoms: _347  and  _348
REMARK  129  A    between atoms: _358  and  _360
REMARK  130  A    between atoms: _360  and  _361
REMARK  131  A    between atoms: _360  and  _363
REMARK  132  A    between atoms: _363  and  _364
REMARK  133  A    between atoms: _364  and  _365
REMARK  134  A    between atoms: _370  and  _372
REMARK  135  A    between atoms: _372  and  _373
REMARK  136  A    between atoms: _372  and  _375
REMARK  137  A    between atoms: _375  and  _376
REMARK                            x       y       z     vdW  Elec       q    Type
REMARK                         _______ _______ _______ _____ _____    ______ ____
ROOT
ATOM      1  C   PHE A   3      19.894  44.809  -4.530  0.00  0.00    +0.241 C 
ATOM      2  O   PHE A   3      19.323  44.847  -3.456  0.00  0.00    -0.273 OA
ATOM      3  N   GLY A   4      19.995  45.877  -5.325  0.00  0.00    -0.295 N 
ATOM      4  H   GLY A   4      20.390  45.801  -6.284  0.00  0.00    +0.150 HD
ENDROOT
BRANCH   3   5
ATOM      5  CA  GLY A   4      19.533  47.145  -4.799  0.00  0.00    +0.176 C 
BRANCH   5   6
ATOM      6  C   GLY A   4      19.492  48.280  -5.791  0.00  0.00    +0.243 C 
ATOM      7  N   PHE A   5      18.966  49.426  -5.332  0.00  0.00    -0.297 N 
ATOM      8  H   PHE A   5      18.664  49.479  -4.338  0.00  0.00    +0.150 HD
ATOM      9  O   GLY A   4      19.971  48.152  -6.916  0.00  0.00    -0.273 OA
BRANCH   7  10
ATOM     10  CA  PHE A   5      18.805  50.599  -6.182  0.00  0.00    +0.153 C 
BRANCH  10  11
ATOM     11  C   PHE A   5      18.690  51.816  -5.284  0.00  0.00    +0.241 C 
ATOM     12  O   PHE A   5      18.008  51.758  -4.234  0.00  0.00    -0.273 OA
ATOM     13  N   GLN A   6      19.372  52.910  -5.642  0.00  0.00    -0.298 N 
ATOM     14  H   GLN A   6      19.922  52.921  -6.525  0.00  0.00    +0.150 HD
BRANCH  13  15
ATOM     15  CA  GLN A   6      19.336  54.110  -4.764  0.00  0.00    +0.137 C 
BRANCH  15  16
ATOM     16  C   GLN A   6      18.086  54.955  -4.917  0.00  0.00    +0.227 C 
ATOM     17  O   GLN A   6      17.451  54.955  -5.985  0.00  0.00    -0.286 OA
ENDBRANCH  15  16
BRANCH  15  18
ATOM     18  CB  GLN A   6      20.496  55.053  -5.070  0.00  0.00    +0.037 C 
BRANCH  18  19
ATOM     19  CG  GLN A   6      21.810  54.812  -4.364  0.00  0.00    +0.087 C 
BRANCH  19  20
ATOM     20  CD  GLN A   6      22.723  56.060  -4.481  0.00  0.00    +0.219 C 
ATOM     21  NE2 GLN A   6      23.634  56.235  -3.532  0.00  0.00    -0.329 N 
ATOM     22 HE21 GLN A   6      23.731  55.535  -2.769  0.00  0.00    +0.145 HD
ATOM     23 HE22 GLN A   6      24.251  57.072  -3.551  0.00  0.00    +0.145 HD
ATOM     24  OE1 GLN A   6      22.570  56.868  -5.411  0.00  0.00    -0.275 OA
ENDBRANCH  19  20
ENDBRANCH  18  19
ENDBRANCH  15  18
ENDBRANCH  13  15
ENDBRANCH  10  11
BRANCH  10  25
ATOM     25  CB  PHE A   5      17.518  50.478  -7.022  0.00  0.00    +0.055 C 
BRANCH  25  26
ATOM     26  CG  PHE A   5      17.475  51.472  -8.157  0.00  0.00    -0.020 A 
ATOM     27  CD2 PHE A   5      16.837  52.695  -7.998  0.00  0.00    -0.004 A 
ATOM     28  CE2 PHE A   5      16.865  53.636  -9.044  0.00  0.00    -0.000 A 
ATOM     29  CZ  PHE A   5      17.504  53.341 -10.210  0.00  0.00    -0.000 A 
ATOM     30  CE1 PHE A   5      18.149  52.119 -10.380  0.00  0.00    -0.000 A 
ATOM     31  CD1 PHE A   5      18.143  51.195  -9.357  0.00  0.00    -0.004 A 
ENDBRANCH  25  26
ENDBRANCH  10  25
ENDBRANCH   7  10
ENDBRANCH   5   6
ENDBRANCH   3   5
BRANCH   1  32
ATOM     32  CA  PHE A   3      20.572  43.525  -4.971  0.00  0.00    +0.153 C 
BRANCH  32  34
ATOM     33  C   GLU A   2      21.630  41.759  -3.612  0.00  0.00    +0.241 C 
ATOM     34  N   PHE A   3      20.779  42.775  -3.726  0.00  0.00    -0.297 N 
ATOM     35  H   PHE A   3      20.230  43.053  -2.887  0.00  0.00    +0.150 HD
ATOM     36  O   GLU A   2      22.080  41.124  -4.571  0.00  0.00    -0.273 OA
BRANCH  33  37
ATOM     37  CA  GLU A   2      22.122  41.438  -2.202  0.00  0.00    +0.149 C 
BRANCH  37  40
ATOM     38  C   SER A   1      22.152  39.443  -0.771  0.00  0.00    +0.241 C 
ATOM     39  O   SER A   1      22.227  40.112   0.262  0.00  0.00    -0.274 OA
ATOM     40  N   GLU A   2      22.213  39.978  -1.990  0.00  0.00    -0.297 N 
ATOM     41  H   GLU A   2      22.328  39.352  -2.813  0.00  0.00    +0.150 HD
BRANCH  38  42
ATOM     42  CA  SER A   1      21.934  37.919  -0.692  0.00  0.00    +0.174 C 
BRANCH  42  43
ATOM     43  N   SER A   1      21.478  37.349  -1.988  0.00  0.00    -0.236 NA
ATOM     44  H   SER A   1      22.180  36.998  -2.671  0.00  0.00    +0.142 HD
ENDBRANCH  42  43
BRANCH  42  45
ATOM     45  CB  SER A   1      23.155  37.201  -0.116  0.00  0.00    +0.163 C 
BRANCH  45  46
ATOM     46  OG  SER A   1      24.168  37.056  -1.094  0.00  0.00    -0.380 OA
ATOM     47  H   SER A   1      24.945  36.589  -0.696  0.00  0.00    +0.211 HD
ENDBRANCH  45  46
ENDBRANCH  42  45
ENDBRANCH  38  42
ENDBRANCH  37  40
BRANCH  37  48
ATOM     48  CB  GLU A   2      23.528  42.099  -2.117  0.00  0.00    +0.041 C 
BRANCH  48  49
ATOM     49  CG  GLU A   2      24.215  42.141  -0.734  0.00  0.00    +0.116 C 
BRANCH  49  50
ATOM     50  CD  GLU A   2      25.478  43.021  -0.736  0.00  0.00    +0.365 C 
ATOM     51  OE2 GLU A   2      26.180  43.089   0.315  0.00  0.00    -0.246 OA
ATOM     52  OE1 GLU A   2      25.772  43.646  -1.783  0.00  0.00    -0.246 OA
ENDBRANCH  49  50
ENDBRANCH  48  49
ENDBRANCH  37  48
ENDBRANCH  33  37
ENDBRANCH  32  34
BRANCH  32  53
ATOM     53  CB  PHE A   3      19.723  42.735  -5.990  0.00  0.00    +0.055 C 
BRANCH  53  54
ATOM     54  CG  PHE A   3      18.216  42.703  -5.687  0.00  0.00    -0.020 A 
ATOM     55  CD2 PHE A   3      17.705  42.040  -4.540  0.00  0.00    -0.004 A 
ATOM     56  CE2 PHE A   3      16.323  42.013  -4.270  0.00  0.00    -0.000 A 
ATOM     57  CZ  PHE A   3      15.436  42.596  -5.144  0.00  0.00    -0.000 A 
ATOM     58  CE1 PHE A   3      15.910  43.279  -6.278  0.00  0.00    -0.000 A 
ATOM     59  CD1 PHE A   3      17.318  43.312  -6.547  0.00  0.00    -0.004 A 
ENDBRANCH  53  54
ENDBRANCH  32  53
ENDBRANCH   1  32
TORSDOF 24
REMARK  Name = ../refined-set-2016/2vjx/2vjx_pocket.pdb
REMARK  137 active torsions:
REMARK  status: ('A' for Active; 'I' for Inactive)
REMARK    1  A    between atoms: _1  and  _3
REMARK    2  A    between atoms: _3  and  _4
REMARK    3  A    between atoms: _3  and  _6
REMARK    4  A    between atoms: _6  and  _7
REMARK    5  A    between atoms: _12  and  _14
REMARK    6  A    between atoms: _14  and  _15
REMARK    7  A    between atoms: _14  and  _17
REMARK    8  A    between atoms: _17  and  _18
REMARK    9  A    between atoms: _28  and  _30
REMARK   10  A    between atoms: _30  and  _31
REMARK   11  A    between atoms: _30  and  _33
REMARK   12  A    between atoms: _33  and  _34
REMARK   13  A    between atoms: _37  and  _39
REMARK   14  A    between atoms: _39  and  _40
REMARK   15  A    between atoms: _39  and  _42
REMARK   16  A    between atoms: _42  and  _43
REMARK   17  A    between atoms: _53  and  _55
REMARK   18  A    between atoms: _55  and  _56
REMARK   19  A    between atoms: _58  and  _60
REMARK   20  A    between atoms: _60  and  _61
REMARK   21  A    between atoms: _60  and  _63
REMARK   22  A    between atoms: _63  and  _64
REMARK   23  A    between atoms: _69  and  _71
REMARK   24  A    between atoms: _71  and  _72
REMARK   25  A    between atoms: _71  and  _74
REMARK   26  A    between atoms: _74  and  _75
REMARK   27  A    between atoms: _78  and  _80
REMARK   28  A    between atoms: _80  and  _81
REMARK   29  A    between atoms: _80  and  _83
REMARK   30  A    between atoms: _83  and  _84
REMARK   31  A    between atoms: _84  and  _85
REMARK   32  A    between atoms: _85  and  _86
REMARK   33  A    between atoms: _95  and  _97
REMARK   34  A    between atoms: _97  and  _98
REMARK   35  A    between atoms: _97  and  _100
REMARK   36  A    between atoms: _100  and  _101
REMARK   37  A    between atoms: _111  and  _113
REMARK   38  A    between atoms: _113  and  _114
REMARK   39  A    between atoms: _116  and  _118
REMARK   40  A    between atoms: _118  and  _119
REMARK   41  A    between atoms: _121  and  _123
REMARK   42  A    between atoms: _123  and  _124
REMARK   43  A    between atoms: _123  and  _126
REMARK   44  A    between atoms: _126  and  _127
REMARK   45  A    between atoms: _130  and  _132
REMARK   46  A    between atoms: _132  and  _133
REMARK   47  A    between atoms: _136  and  _138
REMARK   48  A    between atoms: _138  and  _139
REMARK   49  A    between atoms: _138  and  _141
REMARK   50  A    between atoms: _143  and  _145
REMARK   51  A    between atoms: _145  and  _146
REMARK   52  A    between atoms: _145  and  _148
REMARK   53  A    between atoms: _148  and  _149
REMARK   54  A    between atoms: _154  and  _156
REMARK   55  A    between atoms: _156  and  _157
REMARK   56  A    between atoms: _156  and  _159
REMARK   57  A    between atoms: _159  and  _160
REMARK   58  A    between atoms: _160  and  _161
REMARK   59  A    between atoms: _164  and  _166
REMARK   60  A    between atoms: _166  and  _167
REMARK   61  A    between atoms: _166  and  _169
REMARK   62  A    between atoms: _169  and  _170
REMARK   63  A    between atoms: _170  and  _171
REMARK   64  A    between atoms: _174  and  _176
REMARK   65  A    between atoms: _176  and  _177
REMARK   66  A    between atoms: _176  and  _179
REMARK   67  A    between atoms: _179  and  _180
REMARK   68  A    between atoms: _190  and  _192
REMARK   69  A    between atoms: _192  and  _193
REMARK   70  A    between atoms: _192  and  _195
REMARK   71  A    between atoms: _195  and  _196
REMARK   72  A    between atoms: _199  and  _200
REMARK   73  A    between atoms: _205  and  _207
REMARK   74  A    between atoms: _207  and  _208
REMARK   75  A    between atoms: _207  and  _210
REMARK   76  A    between atoms: _210  and  _211
REMARK   77  A    between atoms: _216  and  _218
REMARK   78  A    between atoms: _218  and  _219
REMARK   79  A    between atoms: _218  and  _221
REMARK   80  A    between atoms: _221  and  _222
REMARK   81  A    between atoms: _232  and  _234
REMARK   82  A    between atoms: _234  and  _235
REMARK   83  A    between atoms: _234  and  _237
REMARK   84  A    between atoms: _237  and  _238
REMARK   85  A    between atoms: _248  and  _250
REMARK   86  A    between atoms: _250  and  _251
REMARK   87  A    between atoms: _250  and  _253
REMARK   88  A    between atoms: _253  and  _254
REMARK   89  A    between atoms: _259  and  _260
REMARK   90  A    between atoms: _262  and  _264
REMARK   91  A    between atoms: _264  and  _265
REMARK   92  A    between atoms: _264  and  _267
REMARK   93  A    between atoms: _267  and  _268
REMARK   94  A    between atoms: _270  and  _272
REMARK   95  A    between atoms: _272  and  _273
REMARK   96  A    between atoms: _272  and  _275
REMARK   97  A    between atoms: _275  and  _276
REMARK   98  A    between atoms: _276  and  _277
REMARK   99  A    between atoms: _280  and  _282
REMARK  100  A    between atoms: _282  and  _283
REMARK  101  A    between atoms: _282  and  _285
REMARK  102  A    between atoms: _285  and  _286
REMARK  103  A    between atoms: _292  and  _294
REMARK  104  A    between atoms: _294  and  _295
REMARK  105  A    between atoms: _297  and  _299
REMARK  106  A    between atoms: _299  and  _300
REMARK  107  A    between atoms: _299  and  _302
REMARK  108  A    between atoms: _302  and  _303
REMARK  109  A    between atoms: _309  and  _311
REMARK  110  A    between atoms: _311  and  _312
REMARK  111  A    between atoms: _311  and  _314
REMARK  112  A    between atoms: _314  and  _315
REMARK  113  A    between atoms: _315  and  _316
REMARK  114  A    between atoms: _321  and  _323
REMARK  115  A    between atoms: _323  and  _324
REMARK  116  A    between atoms: _323  and  _326
REMARK  117  A    between atoms: _326  and  _327
REMARK  118  A    between atoms: _327  and  _328
REMARK  119  A    between atoms: _328  and  _329
REMARK  120  A    between atoms: _329  and  _330
REMARK  121  A    between atoms: _334  and  _336
REMARK  122  A    between atoms: _336  and  _337
REMARK  123  A    between atoms: _336  and  _339
REMARK  124  A    between atoms: _339  and  _340
REMARK  125  A    between atoms: _342  and  _344
REMARK  126  A    between atoms: _344  and  _345
REMARK  127  A    between atoms: _344  and  _347
REMARK  128  A    between atoms: _347  and  _348
REMARK  129  A    between atoms: _358  and  _360
REMARK  130  A    between atoms: _360  and  _361
REMARK  131  A    between atoms: _360  and  _363
REMARK  132  A    between atoms: _363  and  _364
REMARK  133  A    between atoms: _364  and  _365
REMARK  134  A    between atoms: _370  and  _372
REMARK  135  A    between atoms: _372  and  _373
REMARK  136  A    between atoms: _372  and  _375
REMARK  137  A    between atoms: _375  and  _376
REMARK                            x       y       z     vdW  Elec       q    Type
REMARK                         _______ _______ _______ _____ _____    ______ ____
ROOT
ATOM      1  CA  LYS A   1      28.580  59.109  -1.602  0.00  0.00    +0.145 C 
ENDROOT
BRANCH   1   2
ATOM      2  C   LYS A   1      28.826  58.103  -2.725  0.00  0.00    +0.238 C 
ATOM      3  O   LYS A   1      29.878  57.446  -2.777  0.00  0.00    -0.274 OA
ATOM      4  N   SER A   2      27.851  57.968  -3.600  0.00  0.00    -0.296 N 
ATOM      5  H   SER A   2      26.931  58.414  -3.409  0.00  0.00    +0.150 HD
BRANCH   4   6
ATOM      6  CA  SER A   2      28.033  57.204  -4.835  0.00  0.00    +0.166 C 
BRANCH   6   7
ATOM      7  C   SER A   2      28.283  58.195  -5.976  0.00  0.00    +0.229 C 
ATOM      8  O   SER A   2      27.404  58.967  -6.327  0.00  0.00    -0.286 OA
ENDBRANCH   6   7
BRANCH   6   9
ATOM      9  CB  SER A   2      26.787  56.366  -5.132  0.00  0.00    +0.165 C 
BRANCH   9  10
ATOM     10  OG  SER A   2      26.863  55.854  -6.459  0.00  0.00    -0.380 OA
ATOM     11  H   SER A   2      27.670  55.288  -6.547  0.00  0.00    +0.211 HD
ENDBRANCH   9  10
ENDBRANCH   6   9
ENDBRANCH   4   6
ENDBRANCH   1   2
BRANCH   1  12
ATOM     12  N   LYS A   1      27.255  59.692  -1.691  0.00  0.00    -0.238 NA
ATOM     13  H   LYS A   1      26.439  59.157  -1.331  0.00  0.00    +0.142 HD
ENDBRANCH   1  12
BRANCH   1  14
ATOM     14  CB  LYS A   1      28.789  58.430  -0.229  0.00  0.00    +0.026 C 
BRANCH  14  15
ATOM     15  CG  LYS A   1      28.778  59.398   0.948  0.00  0.00    -0.000 C 
BRANCH  15  16
ATOM     16  CD  LYS A   1      29.886  60.413   0.805  0.00  0.00    -0.024 C 
BRANCH  16  17
ATOM     17  CE  LYS A   1      29.806  61.410   1.933  0.00  0.00    -0.086 C 
BRANCH  17  18
ATOM     18  NZ  LYS A   1      31.038  62.236   1.825  0.00  0.00    +0.380 N 
ATOM     19  HZ1 LYS A   1      31.043  62.949   2.582  0.00  0.00    -0.089 HD
ATOM     20  HZ2 LYS A   1      31.874  61.624   1.918  0.00  0.00    -0.089 HD
ATOM     21  HZ3 LYS A   1      31.056  62.710   0.900  0.00  0.00    -0.089 HD
ENDBRANCH  17  18
ENDBRANCH  16  17
ENDBRANCH  15  16
ENDBRANCH  14  15
ENDBRANCH   1  14
TORSDOF 11
REMARK  Name = ../refined-set-2016/2vjx/2vjx_pocket.pdb
REMARK  137 active torsions:
REMARK  status: ('A' for Active; 'I' for Inactive)
REMARK    1  A    between atoms: _1  and  _3
REMARK    2  A    between atoms: _3  and  _4
REMARK    3  A    between atoms: _3  and  _6
REMARK    4  A    between atoms: _6  and  _7
REMARK    5  A    between atoms: _12  and  _14
REMARK    6  A    between atoms: _14  and  _15
REMARK    7  A    between atoms: _14  and  _17
REMARK    8  A    between atoms: _17  and  _18
REMARK    9  A    between atoms: _28  and  _30
REMARK   10  A    between atoms: _30  and  _31
REMARK   11  A    between atoms: _30  and  _33
REMARK   12  A    between atoms: _33  and  _34
REMARK   13  A    between atoms: _37  and  _39
REMARK   14  A    between atoms: _39  and  _40
REMARK   15  A    between atoms: _39  and  _42
REMARK   16  A    between atoms: _42  and  _43
REMARK   17  A    between atoms: _53  and  _55
REMARK   18  A    between atoms: _55  and  _56
REMARK   19  A    between atoms: _58  and  _60
REMARK   20  A    between atoms: _60  and  _61
REMARK   21  A    between atoms: _60  and  _63
REMARK   22  A    between atoms: _63  and  _64
REMARK   23  A    between atoms: _69  and  _71
REMARK   24  A    between atoms: _71  and  _72
REMARK   25  A    between atoms: _71  and  _74
REMARK   26  A    between atoms: _74  and  _75
REMARK   27  A    between atoms: _78  and  _80
REMARK   28  A    between atoms: _80  and  _81
REMARK   29  A    between atoms: _80  and  _83
REMARK   30  A    between atoms: _83  and  _84
REMARK   31  A    between atoms: _84  and  _85
REMARK   32  A    between atoms: _85  and  _86
REMARK   33  A    between atoms: _95  and  _97
REMARK   34  A    between atoms: _97  and  _98
REMARK   35  A    between atoms: _97  and  _100
REMARK   36  A    between atoms: _100  and  _101
REMARK   37  A    between atoms: _111  and  _113
REMARK   38  A    between atoms: _113  and  _114
REMARK   39  A    between atoms: _116  and  _118
REMARK   40  A    between atoms: _118  and  _119
REMARK   41  A    between atoms: _121  and  _123
REMARK   42  A    between atoms: _123  and  _124
REMARK   43  A    between atoms: _123  and  _126
REMARK   44  A    between atoms: _126  and  _127
REMARK   45  A    between atoms: _130  and  _132
REMARK   46  A    between atoms: _132  and  _133
REMARK   47  A    between atoms: _136  and  _138
REMARK   48  A    between atoms: _138  and  _139
REMARK   49  A    between atoms: _138  and  _141
REMARK   50  A    between atoms: _143  and  _145
REMARK   51  A    between atoms: _145  and  _146
REMARK   52  A    between atoms: _145  and  _148
REMARK   53  A    between atoms: _148  and  _149
REMARK   54  A    between atoms: _154  and  _156
REMARK   55  A    between atoms: _156  and  _157
REMARK   56  A    between atoms: _156  and  _159
REMARK   57  A    between atoms: _159  and  _160
REMARK   58  A    between atoms: _160  and  _161
REMARK   59  A    between atoms: _164  and  _166
REMARK   60  A    between atoms: _166  and  _167
REMARK   61  A    between atoms: _166  and  _169
REMARK   62  A    between atoms: _169  and  _170
REMARK   63  A    between atoms: _170  and  _171
REMARK   64  A    between atoms: _174  and  _176
REMARK   65  A    between atoms: _176  and  _177
REMARK   66  A    between atoms: _176  and  _179
REMARK   67  A    between atoms: _179  and  _180
REMARK   68  A    between atoms: _190  and  _192
REMARK   69  A    between atoms: _192  and  _193
REMARK   70  A    between atoms: _192  and  _195
REMARK   71  A    between atoms: _195  and  _196
REMARK   72  A    between atoms: _199  and  _200
REMARK   73  A    between atoms: _205  and  _207
REMARK   74  A    between atoms: _207  and  _208
REMARK   75  A    between atoms: _207  and  _210
REMARK   76  A    between atoms: _210  and  _211
REMARK   77  A    between atoms: _216  and  _218
REMARK   78  A    between atoms: _218  and  _219
REMARK   79  A    between atoms: _218  and  _221
REMARK   80  A    between atoms: _221  and  _222
REMARK   81  A    between atoms: _232  and  _234
REMARK   82  A    between atoms: _234  and  _235
REMARK   83  A    between atoms: _234  and  _237
REMARK   84  A    between atoms: _237  and  _238
REMARK   85  A    between atoms: _248  and  _250
REMARK   86  A    between atoms: _250  and  _251
REMARK   87  A    between atoms: _250  and  _253
REMARK   88  A    between atoms: _253  and  _254
REMARK   89  A    between atoms: _259  and  _260
REMARK   90  A    between atoms: _262  and  _264
REMARK   91  A    between atoms: _264  and  _265
REMARK   92  A    between atoms: _264  and  _267
REMARK   93  A    between atoms: _267  and  _268
REMARK   94  A    between atoms: _270  and  _272
REMARK   95  A    between atoms: _272  and  _273
REMARK   96  A    between atoms: _272  and  _275
REMARK   97  A    between atoms: _275  and  _276
REMARK   98  A    between atoms: _276  and  _277
REMARK   99  A    between atoms: _280  and  _282
REMARK  100  A    between atoms: _282  and  _283
REMARK  101  A    between atoms: _282  and  _285
REMARK  102  A    between atoms: _285  and  _286
REMARK  103  A    between atoms: _292  and  _294
REMARK  104  A    between atoms: _294  and  _295
REMARK  105  A    between atoms: _297  and  _299
REMARK  106  A    between atoms: _299  and  _300
REMARK  107  A    between atoms: _299  and  _302
REMARK  108  A    between atoms: _302  and  _303
REMARK  109  A    between atoms: _309  and  _311
REMARK  110  A    between atoms: _311  and  _312
REMARK  111  A    between atoms: _311  and  _314
REMARK  112  A    between atoms: _314  and  _315
REMARK  113  A    between atoms: _315  and  _316
REMARK  114  A    between atoms: _321  and  _323
REMARK  115  A    between atoms: _323  and  _324
REMARK  116  A    between atoms: _323  and  _326
REMARK  117  A    between atoms: _326  and  _327
REMARK  118  A    between atoms: _327  and  _328
REMARK  119  A    between atoms: _328  and  _329
REMARK  120  A    between atoms: _329  and  _330
REMARK  121  A    between atoms: _334  and  _336
REMARK  122  A    between atoms: _336  and  _337
REMARK  123  A    between atoms: _336  and  _339
REMARK  124  A    between atoms: _339  and  _340
REMARK  125  A    between atoms: _342  and  _344
REMARK  126  A    between atoms: _344  and  _345
REMARK  127  A    between atoms: _344  and  _347
REMARK  128  A    between atoms: _347  and  _348
REMARK  129  A    between atoms: _358  and  _360
REMARK  130  A    between atoms: _360  and  _361
REMARK  131  A    between atoms: _360  and  _363
REMARK  132  A    between atoms: _363  and  _364
REMARK  133  A    between atoms: _364  and  _365
REMARK  134  A    between atoms: _370  and  _372
REMARK  135  A    between atoms: _372  and  _373
REMARK  136  A    between atoms: _372  and  _375
REMARK  137  A    between atoms: _375  and  _376
REMARK                            x       y       z     vdW  Elec       q    Type
REMARK                         _______ _______ _______ _____ _____    ______ ____
ROOT
ATOM      1  CA  TRP A   1      20.528  46.037  -0.241  0.00  0.00    +0.149 C 
ENDROOT
BRANCH   1   2
ATOM      2  C   TRP A   1      19.791  47.384  -0.424  0.00  0.00    +0.239 C 
ATOM      3  N   GLN A   2      19.438  48.129   0.629  0.00  0.00    -0.298 N 
ATOM      4  H   GLN A   2      18.872  48.980   0.435  0.00  0.00    +0.150 HD
ATOM      5  O   TRP A   1      19.536  47.738  -1.575  0.00  0.00    -0.274 OA
BRANCH   3   6
ATOM      6  CA  GLN A   2      19.771  47.862   2.026  0.00  0.00    +0.137 C 
BRANCH   6   7
ATOM      7  C   GLN A   2      18.500  48.234   2.857  0.00  0.00    +0.227 C 
ATOM      8  O   GLN A   2      17.634  48.976   2.383  0.00  0.00    -0.286 OA
ENDBRANCH   6   7
BRANCH   6   9
ATOM      9  CB  GLN A   2      20.960  48.748   2.455  0.00  0.00    +0.037 C 
BRANCH   9  10
ATOM     10  CG  GLN A   2      20.679  50.275   2.555  0.00  0.00    +0.087 C 
BRANCH  10  11
ATOM     11  CD  GLN A   2      21.929  51.153   2.381  0.00  0.00    +0.219 C 
ATOM     12  NE2 GLN A   2      22.396  51.762   3.471  0.00  0.00    -0.329 N 
ATOM     13 HE21 GLN A   2      21.923  51.624   4.387  0.00  0.00    +0.145 HD
ATOM     14 HE22 GLN A   2      23.233  52.376   3.405  0.00  0.00    +0.145 HD
ATOM     15  OE1 GLN A   2      22.458  51.285   1.260  0.00  0.00    -0.275 OA
ENDBRANCH  10  11
ENDBRANCH   9  10
ENDBRANCH   6   9
ENDBRANCH   3   6
ENDBRANCH   1   2
BRANCH   1  16
ATOM     16  N   TRP A   1      19.566  45.051  -0.704  0.00  0.00    -0.238 NA
ATOM     17  H   TRP A   1      19.468  44.906  -1.729  0.00  0.00    +0.142 HD
ENDBRANCH   1  16
BRANCH   1  18
ATOM     18  CB  TRP A   1      21.816  46.019  -1.128  0.00  0.00    +0.054 C 
BRANCH  18  19
ATOM     19  CG  TRP A   1      22.766  46.970  -0.487  0.00  0.00    -0.002 A 
ATOM     20  CD2 TRP A   1      23.570  46.689   0.665  0.00  0.00    +0.013 A 
ATOM     21  CE3 TRP A   1      23.851  45.504   1.383  0.00  0.00    +0.001 A 
ATOM     22  CZ3 TRP A   1      24.745  45.563   2.468  0.00  0.00    +0.000 A 
ATOM     23  CH2 TRP A   1      25.351  46.802   2.836  0.00  0.00    +0.001 A 
ATOM     24  CZ2 TRP A   1      25.074  47.974   2.149  0.00  0.00    +0.017 A 
ATOM     25  CE2 TRP A   1      24.215  47.898   1.042  0.00  0.00    +0.056 A 
ATOM     26  NE1 TRP A   1      23.793  48.890   0.181  0.00  0.00    -0.352 N 
ATOM     27  HE1 TRP A   1      24.095  49.885   0.208  0.00  0.00    +0.166 HD
ATOM     28  CD1 TRP A   1      22.898  48.340  -0.729  0.00  0.00    +0.068 A 
ENDBRANCH  18  19
ENDBRANCH   1  18
TORSDOF 9
REMARK  Name = ../refined-set-2016/2vjx/2vjx_pocket.pdb
REMARK  137 active torsions:
REMARK  status: ('A' for Active; 'I' for Inactive)
REMARK    1  A    between atoms: _1  and  _3
REMARK    2  A    between atoms: _3  and  _4
REMARK    3  A    between atoms: _3  and  _6
REMARK    4  A    between atoms: _6  and  _7
REMARK    5  A    between atoms: _12  and  _14
REMARK    6  A    between atoms: _14  and  _15
REMARK    7  A    between atoms: _14  and  _17
REMARK    8  A    between atoms: _17  and  _18
REMARK    9  A    between atoms: _28  and  _30
REMARK   10  A    between atoms: _30  and  _31
REMARK   11  A    between atoms: _30  and  _33
REMARK   12  A    between atoms: _33  and  _34
REMARK   13  A    between atoms: _37  and  _39
REMARK   14  A    between atoms: _39  and  _40
REMARK   15  A    between atoms: _39  and  _42
REMARK   16  A    between atoms: _42  and  _43
REMARK   17  A    between atoms: _53  and  _55
REMARK   18  A    between atoms: _55  and  _56
REMARK   19  A    between atoms: _58  and  _60
REMARK   20  A    between atoms: _60  and  _61
REMARK   21  A    between atoms: _60  and  _63
REMARK   22  A    between atoms: _63  and  _64
REMARK   23  A    between atoms: _69  and  _71
REMARK   24  A    between atoms: _71  and  _72
REMARK   25  A    between atoms: _71  and  _74
REMARK   26  A    between atoms: _74  and  _75
REMARK   27  A    between atoms: _78  and  _80
REMARK   28  A    between atoms: _80  and  _81
REMARK   29  A    between atoms: _80  and  _83
REMARK   30  A    between atoms: _83  and  _84
REMARK   31  A    between atoms: _84  and  _85
REMARK   32  A    between atoms: _85  and  _86
REMARK   33  A    between atoms: _95  and  _97
REMARK   34  A    between atoms: _97  and  _98
REMARK   35  A    between atoms: _97  and  _100
REMARK   36  A    between atoms: _100  and  _101
REMARK   37  A    between atoms: _111  and  _113
REMARK   38  A    between atoms: _113  and  _114
REMARK   39  A    between atoms: _116  and  _118
REMARK   40  A    between atoms: _118  and  _119
REMARK   41  A    between atoms: _121  and  _123
REMARK   42  A    between atoms: _123  and  _124
REMARK   43  A    between atoms: _123  and  _126
REMARK   44  A    between atoms: _126  and  _127
REMARK   45  A    between atoms: _130  and  _132
REMARK   46  A    between atoms: _132  and  _133
REMARK   47  A    between atoms: _136  and  _138
REMARK   48  A    between atoms: _138  and  _139
REMARK   49  A    between atoms: _138  and  _141
REMARK   50  A    between atoms: _143  and  _145
REMARK   51  A    between atoms: _145  and  _146
REMARK   52  A    between atoms: _145  and  _148
REMARK   53  A    between atoms: _148  and  _149
REMARK   54  A    between atoms: _154  and  _156
REMARK   55  A    between atoms: _156  and  _157
REMARK   56  A    between atoms: _156  and  _159
REMARK   57  A    between atoms: _159  and  _160
REMARK   58  A    between atoms: _160  and  _161
REMARK   59  A    between atoms: _164  and  _166
REMARK   60  A    between atoms: _166  and  _167
REMARK   61  A    between atoms: _166  and  _169
REMARK   62  A    between atoms: _169  and  _170
REMARK   63  A    between atoms: _170  and  _171
REMARK   64  A    between atoms: _174  and  _176
REMARK   65  A    between atoms: _176  and  _177
REMARK   66  A    between atoms: _176  and  _179
REMARK   67  A    between atoms: _179  and  _180
REMARK   68  A    between atoms: _190  and  _192
REMARK   69  A    between atoms: _192  and  _193
REMARK   70  A    between atoms: _192  and  _195
REMARK   71  A    between atoms: _195  and  _196
REMARK   72  A    between atoms: _199  and  _200
REMARK   73  A    between atoms: _205  and  _207
REMARK   74  A    between atoms: _207  and  _208
REMARK   75  A    between atoms: _207  and  _210
REMARK   76  A    between atoms: _210  and  _211
REMARK   77  A    between atoms: _216  and  _218
REMARK   78  A    between atoms: _218  and  _219
REMARK   79  A    between atoms: _218  and  _221
REMARK   80  A    between atoms: _221  and  _222
REMARK   81  A    between atoms: _232  and  _234
REMARK   82  A    between atoms: _234  and  _235
REMARK   83  A    between atoms: _234  and  _237
REMARK   84  A    between atoms: _237  and  _238
REMARK   85  A    between atoms: _248  and  _250
REMARK   86  A    between atoms: _250  and  _251
REMARK   87  A    between atoms: _250  and  _253
REMARK   88  A    between atoms: _253  and  _254
REMARK   89  A    between atoms: _259  and  _260
REMARK   90  A    between atoms: _262  and  _264
REMARK   91  A    between atoms: _264  and  _265
REMARK   92  A    between atoms: _264  and  _267
REMARK   93  A    between atoms: _267  and  _268
REMARK   94  A    between atoms: _270  and  _272
REMARK   95  A    between atoms: _272  and  _273
REMARK   96  A    between atoms: _272  and  _275
REMARK   97  A    between atoms: _275  and  _276
REMARK   98  A    between atoms: _276  and  _277
REMARK   99  A    between atoms: _280  and  _282
REMARK  100  A    between atoms: _282  and  _283
REMARK  101  A    between atoms: _282  and  _285
REMARK  102  A    between atoms: _285  and  _286
REMARK  103  A    between atoms: _292  and  _294
REMARK  104  A    between atoms: _294  and  _295
REMARK  105  A    between atoms: _297  and  _299
REMARK  106  A    between atoms: _299  and  _300
REMARK  107  A    between atoms: _299  and  _302
REMARK  108  A    between atoms: _302  and  _303
REMARK  109  A    between atoms: _309  and  _311
REMARK  110  A    between atoms: _311  and  _312
REMARK  111  A    between atoms: _311  and  _314
REMARK  112  A    between atoms: _314  and  _315
REMARK  113  A    between atoms: _315  and  _316
REMARK  114  A    between atoms: _321  and  _323
REMARK  115  A    between atoms: _323  and  _324
REMARK  116  A    between atoms: _323  and  _326
REMARK  117  A    between atoms: _326  and  _327
REMARK  118  A    between atoms: _327  and  _328
REMARK  119  A    between atoms: _328  and  _329
REMARK  120  A    between atoms: _329  and  _330
REMARK  121  A    between atoms: _334  and  _336
REMARK  122  A    between atoms: _336  and  _337
REMARK  123  A    between atoms: _336  and  _339
REMARK  124  A    between atoms: _339  and  _340
REMARK  125  A    between atoms: _342  and  _344
REMARK  126  A    between atoms: _344  and  _345
REMARK  127  A    between atoms: _344  and  _347
REMARK  128  A    between atoms: _347  and  _348
REMARK  129  A    between atoms: _358  and  _360
REMARK  130  A    between atoms: _360  and  _361
REMARK  131  A    between atoms: _360  and  _363
REMARK  132  A    between atoms: _363  and  _364
REMARK  133  A    between atoms: _364  and  _365
REMARK  134  A    between atoms: _370  and  _372
REMARK  135  A    between atoms: _372  and  _373
REMARK  136  A    between atoms: _372  and  _375
REMARK  137  A    between atoms: _375  and  _376
REMARK                            x       y       z     vdW  Elec       q    Type
REMARK                         _______ _______ _______ _____ _____    ______ ____
ROOT
ATOM      1  CG  TRP A   1      21.804  51.201  -2.724  0.00  0.00    -0.002 A 
ATOM      2  CD2 TRP A   1      23.057  51.911  -2.586  0.00  0.00    +0.013 A 
ATOM      3  CE3 TRP A   1      23.741  52.513  -1.487  0.00  0.00    +0.001 A 
ATOM      4  CZ3 TRP A   1      24.990  53.122  -1.714  0.00  0.00    +0.000 A 
ATOM      5  CH2 TRP A   1      25.575  53.126  -3.021  0.00  0.00    +0.001 A 
ATOM      6  CZ2 TRP A   1      24.944  52.526  -4.096  0.00  0.00    +0.017 A 
ATOM      7  CE2 TRP A   1      23.665  51.932  -3.861  0.00  0.00    +0.056 A 
ATOM      8  NE1 TRP A   1      22.840  51.254  -4.723  0.00  0.00    -0.352 N 
ATOM      9  HE1 TRP A   1      23.025  51.094  -5.734  0.00  0.00    +0.166 HD
ATOM     10  CD1 TRP A   1      21.724  50.817  -4.035  0.00  0.00    +0.068 A 
ENDROOT
BRANCH   1  11
ATOM     11  CB  TRP A   1      20.761  50.920  -1.642  0.00  0.00    +0.053 C 
BRANCH  11  12
ATOM     12  CA  TRP A   1      19.827  52.113  -1.373  0.00  0.00    +0.137 C 
BRANCH  12  13
ATOM     13  N   TRP A   1      20.651  53.254  -0.960  0.00  0.00    -0.239 NA
ATOM     14  H   TRP A   1      21.588  53.056  -0.554  0.00  0.00    +0.142 HD
ENDBRANCH  12  13
BRANCH  12  15
ATOM     15  C   TRP A   1      18.776  51.711  -0.315  0.00  0.00    +0.224 C 
ATOM     16  O   TRP A   1      18.078  50.723  -0.483  0.00  0.00    -0.287 OA
ENDBRANCH  12  15
ENDBRANCH  11  12
ENDBRANCH   1  11
TORSDOF 4
REMARK  Name = ../refined-set-2016/2vjx/2vjx_pocket.pdb
REMARK  137 active torsions:
REMARK  status: ('A' for Active; 'I' for Inactive)
REMARK    1  A    between atoms: _1  and  _3
REMARK    2  A    between atoms: _3  and  _4
REMARK    3  A    between atoms: _3  and  _6
REMARK    4  A    between atoms: _6  and  _7
REMARK    5  A    between atoms: _12  and  _14
REMARK    6  A    between atoms: _14  and  _15
REMARK    7  A    between atoms: _14  and  _17
REMARK    8  A    between atoms: _17  and  _18
REMARK    9  A    between atoms: _28  and  _30
REMARK   10  A    between atoms: _30  and  _31
REMARK   11  A    between atoms: _30  and  _33
REMARK   12  A    between atoms: _33  and  _34
REMARK   13  A    between atoms: _37  and  _39
REMARK   14  A    between atoms: _39  and  _40
REMARK   15  A    between atoms: _39  and  _42
REMARK   16  A    between atoms: _42  and  _43
REMARK   17  A    between atoms: _53  and  _55
REMARK   18  A    between atoms: _55  and  _56
REMARK   19  A    between atoms: _58  and  _60
REMARK   20  A    between atoms: _60  and  _61
REMARK   21  A    between atoms: _60  and  _63
REMARK   22  A    between atoms: _63  and  _64
REMARK   23  A    between atoms: _69  and  _71
REMARK   24  A    between atoms: _71  and  _72
REMARK   25  A    between atoms: _71  and  _74
REMARK   26  A    between atoms: _74  and  _75
REMARK   27  A    between atoms: _78  and  _80
REMARK   28  A    between atoms: _80  and  _81
REMARK   29  A    between atoms: _80  and  _83
REMARK   30  A    between atoms: _83  and  _84
REMARK   31  A    between atoms: _84  and  _85
REMARK   32  A    between atoms: _85  and  _86
REMARK   33  A    between atoms: _95  and  _97
REMARK   34  A    between atoms: _97  and  _98
REMARK   35  A    between atoms: _97  and  _100
REMARK   36  A    between atoms: _100  and  _101
REMARK   37  A    between atoms: _111  and  _113
REMARK   38  A    between atoms: _113  and  _114
REMARK   39  A    between atoms: _116  and  _118
REMARK   40  A    between atoms: _118  and  _119
REMARK   41  A    between atoms: _121  and  _123
REMARK   42  A    between atoms: _123  and  _124
REMARK   43  A    between atoms: _123  and  _126
REMARK   44  A    between atoms: _126  and  _127
REMARK   45  A    between atoms: _130  and  _132
REMARK   46  A    between atoms: _132  and  _133
REMARK   47  A    between atoms: _136  and  _138
REMARK   48  A    between atoms: _138  and  _139
REMARK   49  A    between atoms: _138  and  _141
REMARK   50  A    between atoms: _143  and  _145
REMARK   51  A    between atoms: _145  and  _146
REMARK   52  A    between atoms: _145  and  _148
REMARK   53  A    between atoms: _148  and  _149
REMARK   54  A    between atoms: _154  and  _156
REMARK   55  A    between atoms: _156  and  _157
REMARK   56  A    between atoms: _156  and  _159
REMARK   57  A    between atoms: _159  and  _160
REMARK   58  A    between atoms: _160  and  _161
REMARK   59  A    between atoms: _164  and  _166
REMARK   60  A    between atoms: _166  and  _167
REMARK   61  A    between atoms: _166  and  _169
REMARK   62  A    between atoms: _169  and  _170
REMARK   63  A    between atoms: _170  and  _171
REMARK   64  A    between atoms: _174  and  _176
REMARK   65  A    between atoms: _176  and  _177
REMARK   66  A    between atoms: _176  and  _179
REMARK   67  A    between atoms: _179  and  _180
REMARK   68  A    between atoms: _190  and  _192
REMARK   69  A    between atoms: _192  and  _193
REMARK   70  A    between atoms: _192  and  _195
REMARK   71  A    between atoms: _195  and  _196
REMARK   72  A    between atoms: _199  and  _200
REMARK   73  A    between atoms: _205  and  _207
REMARK   74  A    between atoms: _207  and  _208
REMARK   75  A    between atoms: _207  and  _210
REMARK   76  A    between atoms: _210  and  _211
REMARK   77  A    between atoms: _216  and  _218
REMARK   78  A    between atoms: _218  and  _219
REMARK   79  A    between atoms: _218  and  _221
REMARK   80  A    between atoms: _221  and  _222
REMARK   81  A    between atoms: _232  and  _234
REMARK   82  A    between atoms: _234  and  _235
REMARK   83  A    between atoms: _234  and  _237
REMARK   84  A    between atoms: _237  and  _238
REMARK   85  A    between atoms: _248  and  _250
REMARK   86  A    between atoms: _250  and  _251
REMARK   87  A    between atoms: _250  and  _253
REMARK   88  A    between atoms: _253  and  _254
REMARK   89  A    between atoms: _259  and  _260
REMARK   90  A    between atoms: _262  and  _264
REMARK   91  A    between atoms: _264  and  _265
REMARK   92  A    between atoms: _264  and  _267
REMARK   93  A    between atoms: _267  and  _268
REMARK   94  A    between atoms: _270  and  _272
REMARK   95  A    between atoms: _272  and  _273
REMARK   96  A    between atoms: _272  and  _275
REMARK   97  A    between atoms: _275  and  _276
REMARK   98  A    between atoms: _276  and  _277
REMARK   99  A    between atoms: _280  and  _282
REMARK  100  A    between atoms: _282  and  _283
REMARK  101  A    between atoms: _282  and  _285
REMARK  102  A    between atoms: _285  and  _286
REMARK  103  A    between atoms: _292  and  _294
REMARK  104  A    between atoms: _294  and  _295
REMARK  105  A    between atoms: _297  and  _299
REMARK  106  A    between atoms: _299  and  _300
REMARK  107  A    between atoms: _299  and  _302
REMARK  108  A    between atoms: _302  and  _303
REMARK  109  A    between atoms: _309  and  _311
REMARK  110  A    between atoms: _311  and  _312
REMARK  111  A    between atoms: _311  and  _314
REMARK  112  A    between atoms: _314  and  _315
REMARK  113  A    between atoms: _315  and  _316
REMARK  114  A    between atoms: _321  and  _323
REMARK  115  A    between atoms: _323  and  _324
REMARK  116  A    between atoms: _323  and  _326
REMARK  117  A    between atoms: _326  and  _327
REMARK  118  A    between atoms: _327  and  _328
REMARK  119  A    between atoms: _328  and  _329
REMARK  120  A    between atoms: _329  and  _330
REMARK  121  A    between atoms: _334  and  _336
REMARK  122  A    between atoms: _336  and  _337
REMARK  123  A    between atoms: _336  and  _339
REMARK  124  A    between atoms: _339  and  _340
REMARK  125  A    between atoms: _342  and  _344
REMARK  126  A    between atoms: _344  and  _345
REMARK  127  A    between atoms: _344  and  _347
REMARK  128  A    between atoms: _347  and  _348
REMARK  129  A    between atoms: _358  and  _360
REMARK  130  A    between atoms: _360  and  _361
REMARK  131  A    between atoms: _360  and  _363
REMARK  132  A    between atoms: _363  and  _364
REMARK  133  A    between atoms: _364  and  _365
REMARK  134  A    between atoms: _370  and  _372
REMARK  135  A    between atoms: _372  and  _373
REMARK  136  A    between atoms: _372  and  _375
REMARK  137  A    between atoms: _375  and  _376
REMARK                            x       y       z     vdW  Elec       q    Type
REMARK                         _______ _______ _______ _____ _____    ______ ____
ROOT
ATOM      1  O   HOH     1      33.914  51.910  -3.351  0.00  0.00    +0.000 OA
ENDROOT
TORSDOF 0
REMARK  Name = ../refined-set-2016/2vjx/2vjx_pocket.pdb
REMARK  137 active torsions:
REMARK  status: ('A' for Active; 'I' for Inactive)
REMARK    1  A    between atoms: _1  and  _3
REMARK    2  A    between atoms: _3  and  _4
REMARK    3  A    between atoms: _3  and  _6
REMARK    4  A    between atoms: _6  and  _7
REMARK    5  A    between atoms: _12  and  _14
REMARK    6  A    between atoms: _14  and  _15
REMARK    7  A    between atoms: _14  and  _17
REMARK    8  A    between atoms: _17  and  _18
REMARK    9  A    between atoms: _28  and  _30
REMARK   10  A    between atoms: _30  and  _31
REMARK   11  A    between atoms: _30  and  _33
REMARK   12  A    between atoms: _33  and  _34
REMARK   13  A    between atoms: _37  and  _39
REMARK   14  A    between atoms: _39  and  _40
REMARK   15  A    between atoms: _39  and  _42
REMARK   16  A    between atoms: _42  and  _43
REMARK   17  A    between atoms: _53  and  _55
REMARK   18  A    between atoms: _55  and  _56
REMARK   19  A    between atoms: _58  and  _60
REMARK   20  A    between atoms: _60  and  _61
REMARK   21  A    between atoms: _60  and  _63
REMARK   22  A    between atoms: _63  and  _64
REMARK   23  A    between atoms: _69  and  _71
REMARK   24  A    between atoms: _71  and  _72
REMARK   25  A    between atoms: _71  and  _74
REMARK   26  A    between atoms: _74  and  _75
REMARK   27  A    between atoms: _78  and  _80
REMARK   28  A    between atoms: _80  and  _81
REMARK   29  A    between atoms: _80  and  _83
REMARK   30  A    between atoms: _83  and  _84
REMARK   31  A    between atoms: _84  and  _85
REMARK   32  A    between atoms: _85  and  _86
REMARK   33  A    between atoms: _95  and  _97
REMARK   34  A    between atoms: _97  and  _98
REMARK   35  A    between atoms: _97  and  _100
REMARK   36  A    between atoms: _100  and  _101
REMARK   37  A    between atoms: _111  and  _113
REMARK   38  A    between atoms: _113  and  _114
REMARK   39  A    between atoms: _116  and  _118
REMARK   40  A    between atoms: _118  and  _119
REMARK   41  A    between atoms: _121  and  _123
REMARK   42  A    between atoms: _123  and  _124
REMARK   43  A    between atoms: _123  and  _126
REMARK   44  A    between atoms: _126  and  _127
REMARK   45  A    between atoms: _130  and  _132
REMARK   46  A    between atoms: _132  and  _133
REMARK   47  A    between atoms: _136  and  _138
REMARK   48  A    between atoms: _138  and  _139
REMARK   49  A    between atoms: _138  and  _141
REMARK   50  A    between atoms: _143  and  _145
REMARK   51  A    between atoms: _145  and  _146
REMARK   52  A    between atoms: _145  and  _148
REMARK   53  A    between atoms: _148  and  _149
REMARK   54  A    between atoms: _154  and  _156
REMARK   55  A    between atoms: _156  and  _157
REMARK   56  A    between atoms: _156  and  _159
REMARK   57  A    between atoms: _159  and  _160
REMARK   58  A    between atoms: _160  and  _161
REMARK   59  A    between atoms: _164  and  _166
REMARK   60  A    between atoms: _166  and  _167
REMARK   61  A    between atoms: _166  and  _169
REMARK   62  A    between atoms: _169  and  _170
REMARK   63  A    between atoms: _170  and  _171
REMARK   64  A    between atoms: _174  and  _176
REMARK   65  A    between atoms: _176  and  _177
REMARK   66  A    between atoms: _176  and  _179
REMARK   67  A    between atoms: _179  and  _180
REMARK   68  A    between atoms: _190  and  _192
REMARK   69  A    between atoms: _192  and  _193
REMARK   70  A    between atoms: _192  and  _195
REMARK   71  A    between atoms: _195  and  _196
REMARK   72  A    between atoms: _199  and  _200
REMARK   73  A    between atoms: _205  and  _207
REMARK   74  A    between atoms: _207  and  _208
REMARK   75  A    between atoms: _207  and  _210
REMARK   76  A    between atoms: _210  and  _211
REMARK   77  A    between atoms: _216  and  _218
REMARK   78  A    between atoms: _218  and  _219
REMARK   79  A    between atoms: _218  and  _221
REMARK   80  A    between atoms: _221  and  _222
REMARK   81  A    between atoms: _232  and  _234
REMARK   82  A    between atoms: _234  and  _235
REMARK   83  A    between atoms: _234  and  _237
REMARK   84  A    between atoms: _237  and  _238
REMARK   85  A    between atoms: _248  and  _250
REMARK   86  A    between atoms: _250  and  _251
REMARK   87  A    between atoms: _250  and  _253
REMARK   88  A    between atoms: _253  and  _254
REMARK   89  A    between atoms: _259  and  _260
REMARK   90  A    between atoms: _262  and  _264
REMARK   91  A    between atoms: _264  and  _265
REMARK   92  A    between atoms: _264  and  _267
REMARK   93  A    between atoms: _267  and  _268
REMARK   94  A    between atoms: _270  and  _272
REMARK   95  A    between atoms: _272  and  _273
REMARK   96  A    between atoms: _272  and  _275
REMARK   97  A    between atoms: _275  and  _276
REMARK   98  A    between atoms: _276  and  _277
REMARK   99  A    between atoms: _280  and  _282
REMARK  100  A    between atoms: _282  and  _283
REMARK  101  A    between atoms: _282  and  _285
REMARK  102  A    between atoms: _285  and  _286
REMARK  103  A    between atoms: _292  and  _294
REMARK  104  A    between atoms: _294  and  _295
REMARK  105  A    between atoms: _297  and  _299
REMARK  106  A    between atoms: _299  and  _300
REMARK  107  A    between atoms: _299  and  _302
REMARK  108  A    between atoms: _302  and  _303
REMARK  109  A    between atoms: _309  and  _311
REMARK  110  A    between atoms: _311  and  _312
REMARK  111  A    between atoms: _311  and  _314
REMARK  112  A    between atoms: _314  and  _315
REMARK  113  A    between atoms: _315  and  _316
REMARK  114  A    between atoms: _321  and  _323
REMARK  115  A    between atoms: _323  and  _324
REMARK  116  A    between atoms: _323  and  _326
REMARK  117  A    between atoms: _326  and  _327
REMARK  118  A    between atoms: _327  and  _328
REMARK  119  A    between atoms: _328  and  _329
REMARK  120  A    between atoms: _329  and  _330
REMARK  121  A    between atoms: _334  and  _336
REMARK  122  A    between atoms: _336  and  _337
REMARK  123  A    between atoms: _336  and  _339
REMARK  124  A    between atoms: _339  and  _340
REMARK  125  A    between atoms: _342  and  _344
REMARK  126  A    between atoms: _344  and  _345
REMARK  127  A    between atoms: _344  and  _347
REMARK  128  A    between atoms: _347  and  _348
REMARK  129  A    between atoms: _358  and  _360
REMARK  130  A    between atoms: _360  and  _361
REMARK  131  A    between atoms: _360  and  _363
REMARK  132  A    between atoms: _363  and  _364
REMARK  133  A    between atoms: _364  and  _365
REMARK  134  A    between atoms: _370  and  _372
REMARK  135  A    between atoms: _372  and  _373
REMARK  136  A    between atoms: _372  and  _375
REMARK  137  A    between atoms: _375  and  _376
REMARK                            x       y       z     vdW  Elec       q    Type
REMARK                         _______ _______ _______ _____ _____    ______ ____
ROOT
ATOM      1  O   HOH     1      36.327  49.254   0.698  0.00  0.00    +0.000 OA
ENDROOT
TORSDOF 0
REMARK  Name = ../refined-set-2016/2vjx/2vjx_pocket.pdb
REMARK  137 active torsions:
REMARK  status: ('A' for Active; 'I' for Inactive)
REMARK    1  A    between atoms: _1  and  _3
REMARK    2  A    between atoms: _3  and  _4
REMARK    3  A    between atoms: _3  and  _6
REMARK    4  A    between atoms: _6  and  _7
REMARK    5  A    between atoms: _12  and  _14
REMARK    6  A    between atoms: _14  and  _15
REMARK    7  A    between atoms: _14  and  _17
REMARK    8  A    between atoms: _17  and  _18
REMARK    9  A    between atoms: _28  and  _30
REMARK   10  A    between atoms: _30  and  _31
REMARK   11  A    between atoms: _30  and  _33
REMARK   12  A    between atoms: _33  and  _34
REMARK   13  A    between atoms: _37  and  _39
REMARK   14  A    between atoms: _39  and  _40
REMARK   15  A    between atoms: _39  and  _42
REMARK   16  A    between atoms: _42  and  _43
REMARK   17  A    between atoms: _53  and  _55
REMARK   18  A    between atoms: _55  and  _56
REMARK   19  A    between atoms: _58  and  _60
REMARK   20  A    between atoms: _60  and  _61
REMARK   21  A    between atoms: _60  and  _63
REMARK   22  A    between atoms: _63  and  _64
REMARK   23  A    between atoms: _69  and  _71
REMARK   24  A    between atoms: _71  and  _72
REMARK   25  A    between atoms: _71  and  _74
REMARK   26  A    between atoms: _74  and  _75
REMARK   27  A    between atoms: _78  and  _80
REMARK   28  A    between atoms: _80  and  _81
REMARK   29  A    between atoms: _80  and  _83
REMARK   30  A    between atoms: _83  and  _84
REMARK   31  A    between atoms: _84  and  _85
REMARK   32  A    between atoms: _85  and  _86
REMARK   33  A    between atoms: _95  and  _97
REMARK   34  A    between atoms: _97  and  _98
REMARK   35  A    between atoms: _97  and  _100
REMARK   36  A    between atoms: _100  and  _101
REMARK   37  A    between atoms: _111  and  _113
REMARK   38  A    between atoms: _113  and  _114
REMARK   39  A    between atoms: _116  and  _118
REMARK   40  A    between atoms: _118  and  _119
REMARK   41  A    between atoms: _121  and  _123
REMARK   42  A    between atoms: _123  and  _124
REMARK   43  A    between atoms: _123  and  _126
REMARK   44  A    between atoms: _126  and  _127
REMARK   45  A    between atoms: _130  and  _132
REMARK   46  A    between atoms: _132  and  _133
REMARK   47  A    between atoms: _136  and  _138
REMARK   48  A    between atoms: _138  and  _139
REMARK   49  A    between atoms: _138  and  _141
REMARK   50  A    between atoms: _143  and  _145
REMARK   51  A    between atoms: _145  and  _146
REMARK   52  A    between atoms: _145  and  _148
REMARK   53  A    between atoms: _148  and  _149
REMARK   54  A    between atoms: _154  and  _156
REMARK   55  A    between atoms: _156  and  _157
REMARK   56  A    between atoms: _156  and  _159
REMARK   57  A    between atoms: _159  and  _160
REMARK   58  A    between atoms: _160  and  _161
REMARK   59  A    between atoms: _164  and  _166
REMARK   60  A    between atoms: _166  and  _167
REMARK   61  A    between atoms: _166  and  _169
REMARK   62  A    between atoms: _169  and  _170
REMARK   63  A    between atoms: _170  and  _171
REMARK   64  A    between atoms: _174  and  _176
REMARK   65  A    between atoms: _176  and  _177
REMARK   66  A    between atoms: _176  and  _179
REMARK   67  A    between atoms: _179  and  _180
REMARK   68  A    between atoms: _190  and  _192
REMARK   69  A    between atoms: _192  and  _193
REMARK   70  A    between atoms: _192  and  _195
REMARK   71  A    between atoms: _195  and  _196
REMARK   72  A    between atoms: _199  and  _200
REMARK   73  A    between atoms: _205  and  _207
REMARK   74  A    between atoms: _207  and  _208
REMARK   75  A    between atoms: _207  and  _210
REMARK   76  A    between atoms: _210  and  _211
REMARK   77  A    between atoms: _216  and  _218
REMARK   78  A    between atoms: _218  and  _219
REMARK   79  A    between atoms: _218  and  _221
REMARK   80  A    between atoms: _221  and  _222
REMARK   81  A    between atoms: _232  and  _234
REMARK   82  A    between atoms: _234  and  _235
REMARK   83  A    between atoms: _234  and  _237
REMARK   84  A    between atoms: _237  and  _238
REMARK   85  A    between atoms: _248  and  _250
REMARK   86  A    between atoms: _250  and  _251
REMARK   87  A    between atoms: _250  and  _253
REMARK   88  A    between atoms: _253  and  _254
REMARK   89  A    between atoms: _259  and  _260
REMARK   90  A    between atoms: _262  and  _264
REMARK   91  A    between atoms: _264  and  _265
REMARK   92  A    between atoms: _264  and  _267
REMARK   93  A    between atoms: _267  and  _268
REMARK   94  A    between atoms: _270  and  _272
REMARK   95  A    between atoms: _272  and  _273
REMARK   96  A    between atoms: _272  and  _275
REMARK   97  A    between atoms: _275  and  _276
REMARK   98  A    between atoms: _276  and  _277
REMARK   99  A    between atoms: _280  and  _282
REMARK  100  A    between atoms: _282  and  _283
REMARK  101  A    between atoms: _282  and  _285
REMARK  102  A    between atoms: _285  and  _286
REMARK  103  A    between atoms: _292  and  _294
REMARK  104  A    between atoms: _294  and  _295
REMARK  105  A    between atoms: _297  and  _299
REMARK  106  A    between atoms: _299  and  _300
REMARK  107  A    between atoms: _299  and  _302
REMARK  108  A    between atoms: _302  and  _303
REMARK  109  A    between atoms: _309  and  _311
REMARK  110  A    between atoms: _311  and  _312
REMARK  111  A    between atoms: _311  and  _314
REMARK  112  A    between atoms: _314  and  _315
REMARK  113  A    between atoms: _315  and  _316
REMARK  114  A    between atoms: _321  and  _323
REMARK  115  A    between atoms: _323  and  _324
REMARK  116  A    between atoms: _323  and  _326
REMARK  117  A    between atoms: _326  and  _327
REMARK  118  A    between atoms: _327  and  _328
REMARK  119  A    between atoms: _328  and  _329
REMARK  120  A    between atoms: _329  and  _330
REMARK  121  A    between atoms: _334  and  _336
REMARK  122  A    between atoms: _336  and  _337
REMARK  123  A    between atoms: _336  and  _339
REMARK  124  A    between atoms: _339  and  _340
REMARK  125  A    between atoms: _342  and  _344
REMARK  126  A    between atoms: _344  and  _345
REMARK  127  A    between atoms: _344  and  _347
REMARK  128  A    between atoms: _347  and  _348
REMARK  129  A    between atoms: _358  and  _360
REMARK  130  A    between atoms: _360  and  _361
REMARK  131  A    between atoms: _360  and  _363
REMARK  132  A    between atoms: _363  and  _364
REMARK  133  A    between atoms: _364  and  _365
REMARK  134  A    between atoms: _370  and  _372
REMARK  135  A    between atoms: _372  and  _373
REMARK  136  A    between atoms: _372  and  _375
REMARK  137  A    between atoms: _375  and  _376
REMARK                            x       y       z     vdW  Elec       q    Type
REMARK                         _______ _______ _______ _____ _____    ______ ____
ROOT
ATOM      1  O   HOH     1      32.997  54.855  -0.829  0.00  0.00    +0.000 OA
ENDROOT
TORSDOF 0
REMARK  Name = ../refined-set-2016/2vjx/2vjx_pocket.pdb
REMARK  137 active torsions:
REMARK  status: ('A' for Active; 'I' for Inactive)
REMARK    1  A    between atoms: _1  and  _3
REMARK    2  A    between atoms: _3  and  _4
REMARK    3  A    between atoms: _3  and  _6
REMARK    4  A    between atoms: _6  and  _7
REMARK    5  A    between atoms: _12  and  _14
REMARK    6  A    between atoms: _14  and  _15
REMARK    7  A    between atoms: _14  and  _17
REMARK    8  A    between atoms: _17  and  _18
REMARK    9  A    between atoms: _28  and  _30
REMARK   10  A    between atoms: _30  and  _31
REMARK   11  A    between atoms: _30  and  _33
REMARK   12  A    between atoms: _33  and  _34
REMARK   13  A    between atoms: _37  and  _39
REMARK   14  A    between atoms: _39  and  _40
REMARK   15  A    between atoms: _39  and  _42
REMARK   16  A    between atoms: _42  and  _43
REMARK   17  A    between atoms: _53  and  _55
REMARK   18  A    between atoms: _55  and  _56
REMARK   19  A    between atoms: _58  and  _60
REMARK   20  A    between atoms: _60  and  _61
REMARK   21  A    between atoms: _60  and  _63
REMARK   22  A    between atoms: _63  and  _64
REMARK   23  A    between atoms: _69  and  _71
REMARK   24  A    between atoms: _71  and  _72
REMARK   25  A    between atoms: _71  and  _74
REMARK   26  A    between atoms: _74  and  _75
REMARK   27  A    between atoms: _78  and  _80
REMARK   28  A    between atoms: _80  and  _81
REMARK   29  A    between atoms: _80  and  _83
REMARK   30  A    between atoms: _83  and  _84
REMARK   31  A    between atoms: _84  and  _85
REMARK   32  A    between atoms: _85  and  _86
REMARK   33  A    between atoms: _95  and  _97
REMARK   34  A    between atoms: _97  and  _98
REMARK   35  A    between atoms: _97  and  _100
REMARK   36  A    between atoms: _100  and  _101
REMARK   37  A    between atoms: _111  and  _113
REMARK   38  A    between atoms: _113  and  _114
REMARK   39  A    between atoms: _116  and  _118
REMARK   40  A    between atoms: _118  and  _119
REMARK   41  A    between atoms: _121  and  _123
REMARK   42  A    between atoms: _123  and  _124
REMARK   43  A    between atoms: _123  and  _126
REMARK   44  A    between atoms: _126  and  _127
REMARK   45  A    between atoms: _130  and  _132
REMARK   46  A    between atoms: _132  and  _133
REMARK   47  A    between atoms: _136  and  _138
REMARK   48  A    between atoms: _138  and  _139
REMARK   49  A    between atoms: _138  and  _141
REMARK   50  A    between atoms: _143  and  _145
REMARK   51  A    between atoms: _145  and  _146
REMARK   52  A    between atoms: _145  and  _148
REMARK   53  A    between atoms: _148  and  _149
REMARK   54  A    between atoms: _154  and  _156
REMARK   55  A    between atoms: _156  and  _157
REMARK   56  A    between atoms: _156  and  _159
REMARK   57  A    between atoms: _159  and  _160
REMARK   58  A    between atoms: _160  and  _161
REMARK   59  A    between atoms: _164  and  _166
REMARK   60  A    between atoms: _166  and  _167
REMARK   61  A    between atoms: _166  and  _169
REMARK   62  A    between atoms: _169  and  _170
REMARK   63  A    between atoms: _170  and  _171
REMARK   64  A    between atoms: _174  and  _176
REMARK   65  A    between atoms: _176  and  _177
REMARK   66  A    between atoms: _176  and  _179
REMARK   67  A    between atoms: _179  and  _180
REMARK   68  A    between atoms: _190  and  _192
REMARK   69  A    between atoms: _192  and  _193
REMARK   70  A    between atoms: _192  and  _195
REMARK   71  A    between atoms: _195  and  _196
REMARK   72  A    between atoms: _199  and  _200
REMARK   73  A    between atoms: _205  and  _207
REMARK   74  A    between atoms: _207  and  _208
REMARK   75  A    between atoms: _207  and  _210
REMARK   76  A    between atoms: _210  and  _211
REMARK   77  A    between atoms: _216  and  _218
REMARK   78  A    between atoms: _218  and  _219
REMARK   79  A    between atoms: _218  and  _221
REMARK   80  A    between atoms: _221  and  _222
REMARK   81  A    between atoms: _232  and  _234
REMARK   82  A    between atoms: _234  and  _235
REMARK   83  A    between atoms: _234  and  _237
REMARK   84  A    between atoms: _237  and  _238
REMARK   85  A    between atoms: _248  and  _250
REMARK   86  A    between atoms: _250  and  _251
REMARK   87  A    between atoms: _250  and  _253
REMARK   88  A    between atoms: _253  and  _254
REMARK   89  A    between atoms: _259  and  _260
REMARK   90  A    between atoms: _262  and  _264
REMARK   91  A    between atoms: _264  and  _265
REMARK   92  A    between atoms: _264  and  _267
REMARK   93  A    between atoms: _267  and  _268
REMARK   94  A    between atoms: _270  and  _272
REMARK   95  A    between atoms: _272  and  _273
REMARK   96  A    between atoms: _272  and  _275
REMARK   97  A    between atoms: _275  and  _276
REMARK   98  A    between atoms: _276  and  _277
REMARK   99  A    between atoms: _280  and  _282
REMARK  100  A    between atoms: _282  and  _283
REMARK  101  A    between atoms: _282  and  _285
REMARK  102  A    between atoms: _285  and  _286
REMARK  103  A    between atoms: _292  and  _294
REMARK  104  A    between atoms: _294  and  _295
REMARK  105  A    between atoms: _297  and  _299
REMARK  106  A    between atoms: _299  and  _300
REMARK  107  A    between atoms: _299  and  _302
REMARK  108  A    between atoms: _302  and  _303
REMARK  109  A    between atoms: _309  and  _311
REMARK  110  A    between atoms: _311  and  _312
REMARK  111  A    between atoms: _311  and  _314
REMARK  112  A    between atoms: _314  and  _315
REMARK  113  A    between atoms: _315  and  _316
REMARK  114  A    between atoms: _321  and  _323
REMARK  115  A    between atoms: _323  and  _324
REMARK  116  A    between atoms: _323  and  _326
REMARK  117  A    between atoms: _326  and  _327
REMARK  118  A    between atoms: _327  and  _328
REMARK  119  A    between atoms: _328  and  _329
REMARK  120  A    between atoms: _329  and  _330
REMARK  121  A    between atoms: _334  and  _336
REMARK  122  A    between atoms: _336  and  _337
REMARK  123  A    between atoms: _336  and  _339
REMARK  124  A    between atoms: _339  and  _340
REMARK  125  A    between atoms: _342  and  _344
REMARK  126  A    between atoms: _344  and  _345
REMARK  127  A    between atoms: _344  and  _347
REMARK  128  A    between atoms: _347  and  _348
REMARK  129  A    between atoms: _358  and  _360
REMARK  130  A    between atoms: _360  and  _361
REMARK  131  A    between atoms: _360  and  _363
REMARK  132  A    between atoms: _363  and  _364
REMARK  133  A    between atoms: _364  and  _365
REMARK  134  A    between atoms: _370  and  _372
REMARK  135  A    between atoms: _372  and  _373
REMARK  136  A    between atoms: _372  and  _375
REMARK  137  A    between atoms: _375  and  _376
REMARK                            x       y       z     vdW  Elec       q    Type
REMARK                         _______ _______ _______ _____ _____    ______ ____
ROOT
ATOM      1  O   HOH     1      29.749  45.755  -5.744  0.00  0.00    +0.000 OA
ENDROOT
TORSDOF 0
REMARK  Name = ../refined-set-2016/2vjx/2vjx_pocket.pdb
REMARK  137 active torsions:
REMARK  status: ('A' for Active; 'I' for Inactive)
REMARK    1  A    between atoms: _1  and  _3
REMARK    2  A    between atoms: _3  and  _4
REMARK    3  A    between atoms: _3  and  _6
REMARK    4  A    between atoms: _6  and  _7
REMARK    5  A    between atoms: _12  and  _14
REMARK    6  A    between atoms: _14  and  _15
REMARK    7  A    between atoms: _14  and  _17
REMARK    8  A    between atoms: _17  and  _18
REMARK    9  A    between atoms: _28  and  _30
REMARK   10  A    between atoms: _30  and  _31
REMARK   11  A    between atoms: _30  and  _33
REMARK   12  A    between atoms: _33  and  _34
REMARK   13  A    between atoms: _37  and  _39
REMARK   14  A    between atoms: _39  and  _40
REMARK   15  A    between atoms: _39  and  _42
REMARK   16  A    between atoms: _42  and  _43
REMARK   17  A    between atoms: _53  and  _55
REMARK   18  A    between atoms: _55  and  _56
REMARK   19  A    between atoms: _58  and  _60
REMARK   20  A    between atoms: _60  and  _61
REMARK   21  A    between atoms: _60  and  _63
REMARK   22  A    between atoms: _63  and  _64
REMARK   23  A    between atoms: _69  and  _71
REMARK   24  A    between atoms: _71  and  _72
REMARK   25  A    between atoms: _71  and  _74
REMARK   26  A    between atoms: _74  and  _75
REMARK   27  A    between atoms: _78  and  _80
REMARK   28  A    between atoms: _80  and  _81
REMARK   29  A    between atoms: _80  and  _83
REMARK   30  A    between atoms: _83  and  _84
REMARK   31  A    between atoms: _84  and  _85
REMARK   32  A    between atoms: _85  and  _86
REMARK   33  A    between atoms: _95  and  _97
REMARK   34  A    between atoms: _97  and  _98
REMARK   35  A    between atoms: _97  and  _100
REMARK   36  A    between atoms: _100  and  _101
REMARK   37  A    between atoms: _111  and  _113
REMARK   38  A    between atoms: _113  and  _114
REMARK   39  A    between atoms: _116  and  _118
REMARK   40  A    between atoms: _118  and  _119
REMARK   41  A    between atoms: _121  and  _123
REMARK   42  A    between atoms: _123  and  _124
REMARK   43  A    between atoms: _123  and  _126
REMARK   44  A    between atoms: _126  and  _127
REMARK   45  A    between atoms: _130  and  _132
REMARK   46  A    between atoms: _132  and  _133
REMARK   47  A    between atoms: _136  and  _138
REMARK   48  A    between atoms: _138  and  _139
REMARK   49  A    between atoms: _138  and  _141
REMARK   50  A    between atoms: _143  and  _145
REMARK   51  A    between atoms: _145  and  _146
REMARK   52  A    between atoms: _145  and  _148
REMARK   53  A    between atoms: _148  and  _149
REMARK   54  A    between atoms: _154  and  _156
REMARK   55  A    between atoms: _156  and  _157
REMARK   56  A    between atoms: _156  and  _159
REMARK   57  A    between atoms: _159  and  _160
REMARK   58  A    between atoms: _160  and  _161
REMARK   59  A    between atoms: _164  and  _166
REMARK   60  A    between atoms: _166  and  _167
REMARK   61  A    between atoms: _166  and  _169
REMARK   62  A    between atoms: _169  and  _170
REMARK   63  A    between atoms: _170  and  _171
REMARK   64  A    between atoms: _174  and  _176
REMARK   65  A    between atoms: _176  and  _177
REMARK   66  A    between atoms: _176  and  _179
REMARK   67  A    between atoms: _179  and  _180
REMARK   68  A    between atoms: _190  and  _192
REMARK   69  A    between atoms: _192  and  _193
REMARK   70  A    between atoms: _192  and  _195
REMARK   71  A    between atoms: _195  and  _196
REMARK   72  A    between atoms: _199  and  _200
REMARK   73  A    between atoms: _205  and  _207
REMARK   74  A    between atoms: _207  and  _208
REMARK   75  A    between atoms: _207  and  _210
REMARK   76  A    between atoms: _210  and  _211
REMARK   77  A    between atoms: _216  and  _218
REMARK   78  A    between atoms: _218  and  _219
REMARK   79  A    between atoms: _218  and  _221
REMARK   80  A    between atoms: _221  and  _222
REMARK   81  A    between atoms: _232  and  _234
REMARK   82  A    between atoms: _234  and  _235
REMARK   83  A    between atoms: _234  and  _237
REMARK   84  A    between atoms: _237  and  _238
REMARK   85  A    between atoms: _248  and  _250
REMARK   86  A    between atoms: _250  and  _251
REMARK   87  A    between atoms: _250  and  _253
REMARK   88  A    between atoms: _253  and  _254
REMARK   89  A    between atoms: _259  and  _260
REMARK   90  A    between atoms: _262  and  _264
REMARK   91  A    between atoms: _264  and  _265
REMARK   92  A    between atoms: _264  and  _267
REMARK   93  A    between atoms: _267  and  _268
REMARK   94  A    between atoms: _270  and  _272
REMARK   95  A    between atoms: _272  and  _273
REMARK   96  A    between atoms: _272  and  _275
REMARK   97  A    between atoms: _275  and  _276
REMARK   98  A    between atoms: _276  and  _277
REMARK   99  A    between atoms: _280  and  _282
REMARK  100  A    between atoms: _282  and  _283
REMARK  101  A    between atoms: _282  and  _285
REMARK  102  A    between atoms: _285  and  _286
REMARK  103  A    between atoms: _292  and  _294
REMARK  104  A    between atoms: _294  and  _295
REMARK  105  A    between atoms: _297  and  _299
REMARK  106  A    between atoms: _299  and  _300
REMARK  107  A    between atoms: _299  and  _302
REMARK  108  A    between atoms: _302  and  _303
REMARK  109  A    between atoms: _309  and  _311
REMARK  110  A    between atoms: _311  and  _312
REMARK  111  A    between atoms: _311  and  _314
REMARK  112  A    between atoms: _314  and  _315
REMARK  113  A    between atoms: _315  and  _316
REMARK  114  A    between atoms: _321  and  _323
REMARK  115  A    between atoms: _323  and  _324
REMARK  116  A    between atoms: _323  and  _326
REMARK  117  A    between atoms: _326  and  _327
REMARK  118  A    between atoms: _327  and  _328
REMARK  119  A    between atoms: _328  and  _329
REMARK  120  A    between atoms: _329  and  _330
REMARK  121  A    between atoms: _334  and  _336
REMARK  122  A    between atoms: _336  and  _337
REMARK  123  A    between atoms: _336  and  _339
REMARK  124  A    between atoms: _339  and  _340
REMARK  125  A    between atoms: _342  and  _344
REMARK  126  A    between atoms: _344  and  _345
REMARK  127  A    between atoms: _344  and  _347
REMARK  128  A    between atoms: _347  and  _348
REMARK  129  A    between atoms: _358  and  _360
REMARK  130  A    between atoms: _360  and  _361
REMARK  131  A    between atoms: _360  and  _363
REMARK  132  A    between atoms: _363  and  _364
REMARK  133  A    between atoms: _364  and  _365
REMARK  134  A    between atoms: _370  and  _372
REMARK  135  A    between atoms: _372  and  _373
REMARK  136  A    between atoms: _372  and  _375
REMARK  137  A    between atoms: _375  and  _376
REMARK                            x       y       z     vdW  Elec       q    Type
REMARK                         _______ _______ _______ _____ _____    ______ ____
ROOT
ATOM      1  O   HOH     1      31.127  52.223  -4.354  0.00  0.00    +0.000 OA
ENDROOT
TORSDOF 0
REMARK  Name = ../refined-set-2016/2vjx/2vjx_pocket.pdb
REMARK  137 active torsions:
REMARK  status: ('A' for Active; 'I' for Inactive)
REMARK    1  A    between atoms: _1  and  _3
REMARK    2  A    between atoms: _3  and  _4
REMARK    3  A    between atoms: _3  and  _6
REMARK    4  A    between atoms: _6  and  _7
REMARK    5  A    between atoms: _12  and  _14
REMARK    6  A    between atoms: _14  and  _15
REMARK    7  A    between atoms: _14  and  _17
REMARK    8  A    between atoms: _17  and  _18
REMARK    9  A    between atoms: _28  and  _30
REMARK   10  A    between atoms: _30  and  _31
REMARK   11  A    between atoms: _30  and  _33
REMARK   12  A    between atoms: _33  and  _34
REMARK   13  A    between atoms: _37  and  _39
REMARK   14  A    between atoms: _39  and  _40
REMARK   15  A    between atoms: _39  and  _42
REMARK   16  A    between atoms: _42  and  _43
REMARK   17  A    between atoms: _53  and  _55
REMARK   18  A    between atoms: _55  and  _56
REMARK   19  A    between atoms: _58  and  _60
REMARK   20  A    between atoms: _60  and  _61
REMARK   21  A    between atoms: _60  and  _63
REMARK   22  A    between atoms: _63  and  _64
REMARK   23  A    between atoms: _69  and  _71
REMARK   24  A    between atoms: _71  and  _72
REMARK   25  A    between atoms: _71  and  _74
REMARK   26  A    between atoms: _74  and  _75
REMARK   27  A    between atoms: _78  and  _80
REMARK   28  A    between atoms: _80  and  _81
REMARK   29  A    between atoms: _80  and  _83
REMARK   30  A    between atoms: _83  and  _84
REMARK   31  A    between atoms: _84  and  _85
REMARK   32  A    between atoms: _85  and  _86
REMARK   33  A    between atoms: _95  and  _97
REMARK   34  A    between atoms: _97  and  _98
REMARK   35  A    between atoms: _97  and  _100
REMARK   36  A    between atoms: _100  and  _101
REMARK   37  A    between atoms: _111  and  _113
REMARK   38  A    between atoms: _113  and  _114
REMARK   39  A    between atoms: _116  and  _118
REMARK   40  A    between atoms: _118  and  _119
REMARK   41  A    between atoms: _121  and  _123
REMARK   42  A    between atoms: _123  and  _124
REMARK   43  A    between atoms: _123  and  _126
REMARK   44  A    between atoms: _126  and  _127
REMARK   45  A    between atoms: _130  and  _132
REMARK   46  A    between atoms: _132  and  _133
REMARK   47  A    between atoms: _136  and  _138
REMARK   48  A    between atoms: _138  and  _139
REMARK   49  A    between atoms: _138  and  _141
REMARK   50  A    between atoms: _143  and  _145
REMARK   51  A    between atoms: _145  and  _146
REMARK   52  A    between atoms: _145  and  _148
REMARK   53  A    between atoms: _148  and  _149
REMARK   54  A    between atoms: _154  and  _156
REMARK   55  A    between atoms: _156  and  _157
REMARK   56  A    between atoms: _156  and  _159
REMARK   57  A    between atoms: _159  and  _160
REMARK   58  A    between atoms: _160  and  _161
REMARK   59  A    between atoms: _164  and  _166
REMARK   60  A    between atoms: _166  and  _167
REMARK   61  A    between atoms: _166  and  _169
REMARK   62  A    between atoms: _169  and  _170
REMARK   63  A    between atoms: _170  and  _171
REMARK   64  A    between atoms: _174  and  _176
REMARK   65  A    between atoms: _176  and  _177
REMARK   66  A    between atoms: _176  and  _179
REMARK   67  A    between atoms: _179  and  _180
REMARK   68  A    between atoms: _190  and  _192
REMARK   69  A    between atoms: _192  and  _193
REMARK   70  A    between atoms: _192  and  _195
REMARK   71  A    between atoms: _195  and  _196
REMARK   72  A    between atoms: _199  and  _200
REMARK   73  A    between atoms: _205  and  _207
REMARK   74  A    between atoms: _207  and  _208
REMARK   75  A    between atoms: _207  and  _210
REMARK   76  A    between atoms: _210  and  _211
REMARK   77  A    between atoms: _216  and  _218
REMARK   78  A    between atoms: _218  and  _219
REMARK   79  A    between atoms: _218  and  _221
REMARK   80  A    between atoms: _221  and  _222
REMARK   81  A    between atoms: _232  and  _234
REMARK   82  A    between atoms: _234  and  _235
REMARK   83  A    between atoms: _234  and  _237
REMARK   84  A    between atoms: _237  and  _238
REMARK   85  A    between atoms: _248  and  _250
REMARK   86  A    between atoms: _250  and  _251
REMARK   87  A    between atoms: _250  and  _253
REMARK   88  A    between atoms: _253  and  _254
REMARK   89  A    between atoms: _259  and  _260
REMARK   90  A    between atoms: _262  and  _264
REMARK   91  A    between atoms: _264  and  _265
REMARK   92  A    between atoms: _264  and  _267
REMARK   93  A    between atoms: _267  and  _268
REMARK   94  A    between atoms: _270  and  _272
REMARK   95  A    between atoms: _272  and  _273
REMARK   96  A    between atoms: _272  and  _275
REMARK   97  A    between atoms: _275  and  _276
REMARK   98  A    between atoms: _276  and  _277
REMARK   99  A    between atoms: _280  and  _282
REMARK  100  A    between atoms: _282  and  _283
REMARK  101  A    between atoms: _282  and  _285
REMARK  102  A    between atoms: _285  and  _286
REMARK  103  A    between atoms: _292  and  _294
REMARK  104  A    between atoms: _294  and  _295
REMARK  105  A    between atoms: _297  and  _299
REMARK  106  A    between atoms: _299  and  _300
REMARK  107  A    between atoms: _299  and  _302
REMARK  108  A    between atoms: _302  and  _303
REMARK  109  A    between atoms: _309  and  _311
REMARK  110  A    between atoms: _311  and  _312
REMARK  111  A    between atoms: _311  and  _314
REMARK  112  A    between atoms: _314  and  _315
REMARK  113  A    between atoms: _315  and  _316
REMARK  114  A    between atoms: _321  and  _323
REMARK  115  A    between atoms: _323  and  _324
REMARK  116  A    between atoms: _323  and  _326
REMARK  117  A    between atoms: _326  and  _327
REMARK  118  A    between atoms: _327  and  _328
REMARK  119  A    between atoms: _328  and  _329
REMARK  120  A    between atoms: _329  and  _330
REMARK  121  A    between atoms: _334  and  _336
REMARK  122  A    between atoms: _336  and  _337
REMARK  123  A    between atoms: _336  and  _339
REMARK  124  A    between atoms: _339  and  _340
REMARK  125  A    between atoms: _342  and  _344
REMARK  126  A    between atoms: _344  and  _345
REMARK  127  A    between atoms: _344  and  _347
REMARK  128  A    between atoms: _347  and  _348
REMARK  129  A    between atoms: _358  and  _360
REMARK  130  A    between atoms: _360  and  _361
REMARK  131  A    between atoms: _360  and  _363
REMARK  132  A    between atoms: _363  and  _364
REMARK  133  A    between atoms: _364  and  _365
REMARK  134  A    between atoms: _370  and  _372
REMARK  135  A    between atoms: _372  and  _373
REMARK  136  A    between atoms: _372  and  _375
REMARK  137  A    between atoms: _375  and  _376
REMARK                            x       y       z     vdW  Elec       q    Type
REMARK                         _______ _______ _______ _____ _____    ______ ____
ROOT
ATOM      1  O   HOH     1      36.944  48.154   3.093  0.00  0.00    +0.000 OA
ENDROOT
TORSDOF 0
REMARK  Name = ../refined-set-2016/2vjx/2vjx_pocket.pdb
REMARK  137 active torsions:
REMARK  status: ('A' for Active; 'I' for Inactive)
REMARK    1  A    between atoms: _1  and  _3
REMARK    2  A    between atoms: _3  and  _4
REMARK    3  A    between atoms: _3  and  _6
REMARK    4  A    between atoms: _6  and  _7
REMARK    5  A    between atoms: _12  and  _14
REMARK    6  A    between atoms: _14  and  _15
REMARK    7  A    between atoms: _14  and  _17
REMARK    8  A    between atoms: _17  and  _18
REMARK    9  A    between atoms: _28  and  _30
REMARK   10  A    between atoms: _30  and  _31
REMARK   11  A    between atoms: _30  and  _33
REMARK   12  A    between atoms: _33  and  _34
REMARK   13  A    between atoms: _37  and  _39
REMARK   14  A    between atoms: _39  and  _40
REMARK   15  A    between atoms: _39  and  _42
REMARK   16  A    between atoms: _42  and  _43
REMARK   17  A    between atoms: _53  and  _55
REMARK   18  A    between atoms: _55  and  _56
REMARK   19  A    between atoms: _58  and  _60
REMARK   20  A    between atoms: _60  and  _61
REMARK   21  A    between atoms: _60  and  _63
REMARK   22  A    between atoms: _63  and  _64
REMARK   23  A    between atoms: _69  and  _71
REMARK   24  A    between atoms: _71  and  _72
REMARK   25  A    between atoms: _71  and  _74
REMARK   26  A    between atoms: _74  and  _75
REMARK   27  A    between atoms: _78  and  _80
REMARK   28  A    between atoms: _80  and  _81
REMARK   29  A    between atoms: _80  and  _83
REMARK   30  A    between atoms: _83  and  _84
REMARK   31  A    between atoms: _84  and  _85
REMARK   32  A    between atoms: _85  and  _86
REMARK   33  A    between atoms: _95  and  _97
REMARK   34  A    between atoms: _97  and  _98
REMARK   35  A    between atoms: _97  and  _100
REMARK   36  A    between atoms: _100  and  _101
REMARK   37  A    between atoms: _111  and  _113
REMARK   38  A    between atoms: _113  and  _114
REMARK   39  A    between atoms: _116  and  _118
REMARK   40  A    between atoms: _118  and  _119
REMARK   41  A    between atoms: _121  and  _123
REMARK   42  A    between atoms: _123  and  _124
REMARK   43  A    between atoms: _123  and  _126
REMARK   44  A    between atoms: _126  and  _127
REMARK   45  A    between atoms: _130  and  _132
REMARK   46  A    between atoms: _132  and  _133
REMARK   47  A    between atoms: _136  and  _138
REMARK   48  A    between atoms: _138  and  _139
REMARK   49  A    between atoms: _138  and  _141
REMARK   50  A    between atoms: _143  and  _145
REMARK   51  A    between atoms: _145  and  _146
REMARK   52  A    between atoms: _145  and  _148
REMARK   53  A    between atoms: _148  and  _149
REMARK   54  A    between atoms: _154  and  _156
REMARK   55  A    between atoms: _156  and  _157
REMARK   56  A    between atoms: _156  and  _159
REMARK   57  A    between atoms: _159  and  _160
REMARK   58  A    between atoms: _160  and  _161
REMARK   59  A    between atoms: _164  and  _166
REMARK   60  A    between atoms: _166  and  _167
REMARK   61  A    between atoms: _166  and  _169
REMARK   62  A    between atoms: _169  and  _170
REMARK   63  A    between atoms: _170  and  _171
REMARK   64  A    between atoms: _174  and  _176
REMARK   65  A    between atoms: _176  and  _177
REMARK   66  A    between atoms: _176  and  _179
REMARK   67  A    between atoms: _179  and  _180
REMARK   68  A    between atoms: _190  and  _192
REMARK   69  A    between atoms: _192  and  _193
REMARK   70  A    between atoms: _192  and  _195
REMARK   71  A    between atoms: _195  and  _196
REMARK   72  A    between atoms: _199  and  _200
REMARK   73  A    between atoms: _205  and  _207
REMARK   74  A    between atoms: _207  and  _208
REMARK   75  A    between atoms: _207  and  _210
REMARK   76  A    between atoms: _210  and  _211
REMARK   77  A    between atoms: _216  and  _218
REMARK   78  A    between atoms: _218  and  _219
REMARK   79  A    between atoms: _218  and  _221
REMARK   80  A    between atoms: _221  and  _222
REMARK   81  A    between atoms: _232  and  _234
REMARK   82  A    between atoms: _234  and  _235
REMARK   83  A    between atoms: _234  and  _237
REMARK   84  A    between atoms: _237  and  _238
REMARK   85  A    between atoms: _248  and  _250
REMARK   86  A    between atoms: _250  and  _251
REMARK   87  A    between atoms: _250  and  _253
REMARK   88  A    between atoms: _253  and  _254
REMARK   89  A    between atoms: _259  and  _260
REMARK   90  A    between atoms: _262  and  _264
REMARK   91  A    between atoms: _264  and  _265
REMARK   92  A    between atoms: _264  and  _267
REMARK   93  A    between atoms: _267  and  _268
REMARK   94  A    between atoms: _270  and  _272
REMARK   95  A    between atoms: _272  and  _273
REMARK   96  A    between atoms: _272  and  _275
REMARK   97  A    between atoms: _275  and  _276
REMARK   98  A    between atoms: _276  and  _277
REMARK   99  A    between atoms: _280  and  _282
REMARK  100  A    between atoms: _282  and  _283
REMARK  101  A    between atoms: _282  and  _285
REMARK  102  A    between atoms: _285  and  _286
REMARK  103  A    between atoms: _292  and  _294
REMARK  104  A    between atoms: _294  and  _295
REMARK  105  A    between atoms: _297  and  _299
REMARK  106  A    between atoms: _299  and  _300
REMARK  107  A    between atoms: _299  and  _302
REMARK  108  A    between atoms: _302  and  _303
REMARK  109  A    between atoms: _309  and  _311
REMARK  110  A    between atoms: _311  and  _312
REMARK  111  A    between atoms: _311  and  _314
REMARK  112  A    between atoms: _314  and  _315
REMARK  113  A    between atoms: _315  and  _316
REMARK  114  A    between atoms: _321  and  _323
REMARK  115  A    between atoms: _323  and  _324
REMARK  116  A    between atoms: _323  and  _326
REMARK  117  A    between atoms: _326  and  _327
REMARK  118  A    between atoms: _327  and  _328
REMARK  119  A    between atoms: _328  and  _329
REMARK  120  A    between atoms: _329  and  _330
REMARK  121  A    between atoms: _334  and  _336
REMARK  122  A    between atoms: _336  and  _337
REMARK  123  A    between atoms: _336  and  _339
REMARK  124  A    between atoms: _339  and  _340
REMARK  125  A    between atoms: _342  and  _344
REMARK  126  A    between atoms: _344  and  _345
REMARK  127  A    between atoms: _344  and  _347
REMARK  128  A    between atoms: _347  and  _348
REMARK  129  A    between atoms: _358  and  _360
REMARK  130  A    between atoms: _360  and  _361
REMARK  131  A    between atoms: _360  and  _363
REMARK  132  A    between atoms: _363  and  _364
REMARK  133  A    between atoms: _364  and  _365
REMARK  134  A    between atoms: _370  and  _372
REMARK  135  A    between atoms: _372  and  _373
REMARK  136  A    between atoms: _372  and  _375
REMARK  137  A    between atoms: _375  and  _376
REMARK                            x       y       z     vdW  Elec       q    Type
REMARK                         _______ _______ _______ _____ _____    ______ ____
ROOT
ATOM      1  O   HOH     1      29.077  42.250  -5.516  0.00  0.00    +0.000 OA
ENDROOT
TORSDOF 0
REMARK  Name = ../refined-set-2016/2vjx/2vjx_pocket.pdb
REMARK  137 active torsions:
REMARK  status: ('A' for Active; 'I' for Inactive)
REMARK    1  A    between atoms: _1  and  _3
REMARK    2  A    between atoms: _3  and  _4
REMARK    3  A    between atoms: _3  and  _6
REMARK    4  A    between atoms: _6  and  _7
REMARK    5  A    between atoms: _12  and  _14
REMARK    6  A    between atoms: _14  and  _15
REMARK    7  A    between atoms: _14  and  _17
REMARK    8  A    between atoms: _17  and  _18
REMARK    9  A    between atoms: _28  and  _30
REMARK   10  A    between atoms: _30  and  _31
REMARK   11  A    between atoms: _30  and  _33
REMARK   12  A    between atoms: _33  and  _34
REMARK   13  A    between atoms: _37  and  _39
REMARK   14  A    between atoms: _39  and  _40
REMARK   15  A    between atoms: _39  and  _42
REMARK   16  A    between atoms: _42  and  _43
REMARK   17  A    between atoms: _53  and  _55
REMARK   18  A    between atoms: _55  and  _56
REMARK   19  A    between atoms: _58  and  _60
REMARK   20  A    between atoms: _60  and  _61
REMARK   21  A    between atoms: _60  and  _63
REMARK   22  A    between atoms: _63  and  _64
REMARK   23  A    between atoms: _69  and  _71
REMARK   24  A    between atoms: _71  and  _72
REMARK   25  A    between atoms: _71  and  _74
REMARK   26  A    between atoms: _74  and  _75
REMARK   27  A    between atoms: _78  and  _80
REMARK   28  A    between atoms: _80  and  _81
REMARK   29  A    between atoms: _80  and  _83
REMARK   30  A    between atoms: _83  and  _84
REMARK   31  A    between atoms: _84  and  _85
REMARK   32  A    between atoms: _85  and  _86
REMARK   33  A    between atoms: _95  and  _97
REMARK   34  A    between atoms: _97  and  _98
REMARK   35  A    between atoms: _97  and  _100
REMARK   36  A    between atoms: _100  and  _101
REMARK   37  A    between atoms: _111  and  _113
REMARK   38  A    between atoms: _113  and  _114
REMARK   39  A    between atoms: _116  and  _118
REMARK   40  A    between atoms: _118  and  _119
REMARK   41  A    between atoms: _121  and  _123
REMARK   42  A    between atoms: _123  and  _124
REMARK   43  A    between atoms: _123  and  _126
REMARK   44  A    between atoms: _126  and  _127
REMARK   45  A    between atoms: _130  and  _132
REMARK   46  A    between atoms: _132  and  _133
REMARK   47  A    between atoms: _136  and  _138
REMARK   48  A    between atoms: _138  and  _139
REMARK   49  A    between atoms: _138  and  _141
REMARK   50  A    between atoms: _143  and  _145
REMARK   51  A    between atoms: _145  and  _146
REMARK   52  A    between atoms: _145  and  _148
REMARK   53  A    between atoms: _148  and  _149
REMARK   54  A    between atoms: _154  and  _156
REMARK   55  A    between atoms: _156  and  _157
REMARK   56  A    between atoms: _156  and  _159
REMARK   57  A    between atoms: _159  and  _160
REMARK   58  A    between atoms: _160  and  _161
REMARK   59  A    between atoms: _164  and  _166
REMARK   60  A    between atoms: _166  and  _167
REMARK   61  A    between atoms: _166  and  _169
REMARK   62  A    between atoms: _169  and  _170
REMARK   63  A    between atoms: _170  and  _171
REMARK   64  A    between atoms: _174  and  _176
REMARK   65  A    between atoms: _176  and  _177
REMARK   66  A    between atoms: _176  and  _179
REMARK   67  A    between atoms: _179  and  _180
REMARK   68  A    between atoms: _190  and  _192
REMARK   69  A    between atoms: _192  and  _193
REMARK   70  A    between atoms: _192  and  _195
REMARK   71  A    between atoms: _195  and  _196
REMARK   72  A    between atoms: _199  and  _200
REMARK   73  A    between atoms: _205  and  _207
REMARK   74  A    between atoms: _207  and  _208
REMARK   75  A    between atoms: _207  and  _210
REMARK   76  A    between atoms: _210  and  _211
REMARK   77  A    between atoms: _216  and  _218
REMARK   78  A    between atoms: _218  and  _219
REMARK   79  A    between atoms: _218  and  _221
REMARK   80  A    between atoms: _221  and  _222
REMARK   81  A    between atoms: _232  and  _234
REMARK   82  A    between atoms: _234  and  _235
REMARK   83  A    between atoms: _234  and  _237
REMARK   84  A    between atoms: _237  and  _238
REMARK   85  A    between atoms: _248  and  _250
REMARK   86  A    between atoms: _250  and  _251
REMARK   87  A    between atoms: _250  and  _253
REMARK   88  A    between atoms: _253  and  _254
REMARK   89  A    between atoms: _259  and  _260
REMARK   90  A    between atoms: _262  and  _264
REMARK   91  A    between atoms: _264  and  _265
REMARK   92  A    between atoms: _264  and  _267
REMARK   93  A    between atoms: _267  and  _268
REMARK   94  A    between atoms: _270  and  _272
REMARK   95  A    between atoms: _272  and  _273
REMARK   96  A    between atoms: _272  and  _275
REMARK   97  A    between atoms: _275  and  _276
REMARK   98  A    between atoms: _276  and  _277
REMARK   99  A    between atoms: _280  and  _282
REMARK  100  A    between atoms: _282  and  _283
REMARK  101  A    between atoms: _282  and  _285
REMARK  102  A    between atoms: _285  and  _286
REMARK  103  A    between atoms: _292  and  _294
REMARK  104  A    between atoms: _294  and  _295
REMARK  105  A    between atoms: _297  and  _299
REMARK  106  A    between atoms: _299  and  _300
REMARK  107  A    between atoms: _299  and  _302
REMARK  108  A    between atoms: _302  and  _303
REMARK  109  A    between atoms: _309  and  _311
REMARK  110  A    between atoms: _311  and  _312
REMARK  111  A    between atoms: _311  and  _314
REMARK  112  A    between atoms: _314  and  _315
REMARK  113  A    between atoms: _315  and  _316
REMARK  114  A    between atoms: _321  and  _323
REMARK  115  A    between atoms: _323  and  _324
REMARK  116  A    between atoms: _323  and  _326
REMARK  117  A    between atoms: _326  and  _327
REMARK  118  A    between atoms: _327  and  _328
REMARK  119  A    between atoms: _328  and  _329
REMARK  120  A    between atoms: _329  and  _330
REMARK  121  A    between atoms: _334  and  _336
REMARK  122  A    between atoms: _336  and  _337
REMARK  123  A    between atoms: _336  and  _339
REMARK  124  A    between atoms: _339  and  _340
REMARK  125  A    between atoms: _342  and  _344
REMARK  126  A    between atoms: _344  and  _345
REMARK  127  A    between atoms: _344  and  _347
REMARK  128  A    between atoms: _347  and  _348
REMARK  129  A    between atoms: _358  and  _360
REMARK  130  A    between atoms: _360  and  _361
REMARK  131  A    between atoms: _360  and  _363
REMARK  132  A    between atoms: _363  and  _364
REMARK  133  A    between atoms: _364  and  _365
REMARK  134  A    between atoms: _370  and  _372
REMARK  135  A    between atoms: _372  and  _373
REMARK  136  A    between atoms: _372  and  _375
REMARK  137  A    between atoms: _375  and  _376
REMARK                            x       y       z     vdW  Elec       q    Type
REMARK                         _______ _______ _______ _____ _____    ______ ____
ROOT
ATOM      1  O   HOH     1      29.979  45.879  -9.116  0.00  0.00    +0.000 OA
ENDROOT
TORSDOF 0
REMARK  Name = ../refined-set-2016/2vjx/2vjx_pocket.pdb
REMARK  137 active torsions:
REMARK  status: ('A' for Active; 'I' for Inactive)
REMARK    1  A    between atoms: _1  and  _3
REMARK    2  A    between atoms: _3  and  _4
REMARK    3  A    between atoms: _3  and  _6
REMARK    4  A    between atoms: _6  and  _7
REMARK    5  A    between atoms: _12  and  _14
REMARK    6  A    between atoms: _14  and  _15
REMARK    7  A    between atoms: _14  and  _17
REMARK    8  A    between atoms: _17  and  _18
REMARK    9  A    between atoms: _28  and  _30
REMARK   10  A    between atoms: _30  and  _31
REMARK   11  A    between atoms: _30  and  _33
REMARK   12  A    between atoms: _33  and  _34
REMARK   13  A    between atoms: _37  and  _39
REMARK   14  A    between atoms: _39  and  _40
REMARK   15  A    between atoms: _39  and  _42
REMARK   16  A    between atoms: _42  and  _43
REMARK   17  A    between atoms: _53  and  _55
REMARK   18  A    between atoms: _55  and  _56
REMARK   19  A    between atoms: _58  and  _60
REMARK   20  A    between atoms: _60  and  _61
REMARK   21  A    between atoms: _60  and  _63
REMARK   22  A    between atoms: _63  and  _64
REMARK   23  A    between atoms: _69  and  _71
REMARK   24  A    between atoms: _71  and  _72
REMARK   25  A    between atoms: _71  and  _74
REMARK   26  A    between atoms: _74  and  _75
REMARK   27  A    between atoms: _78  and  _80
REMARK   28  A    between atoms: _80  and  _81
REMARK   29  A    between atoms: _80  and  _83
REMARK   30  A    between atoms: _83  and  _84
REMARK   31  A    between atoms: _84  and  _85
REMARK   32  A    between atoms: _85  and  _86
REMARK   33  A    between atoms: _95  and  _97
REMARK   34  A    between atoms: _97  and  _98
REMARK   35  A    between atoms: _97  and  _100
REMARK   36  A    between atoms: _100  and  _101
REMARK   37  A    between atoms: _111  and  _113
REMARK   38  A    between atoms: _113  and  _114
REMARK   39  A    between atoms: _116  and  _118
REMARK   40  A    between atoms: _118  and  _119
REMARK   41  A    between atoms: _121  and  _123
REMARK   42  A    between atoms: _123  and  _124
REMARK   43  A    between atoms: _123  and  _126
REMARK   44  A    between atoms: _126  and  _127
REMARK   45  A    between atoms: _130  and  _132
REMARK   46  A    between atoms: _132  and  _133
REMARK   47  A    between atoms: _136  and  _138
REMARK   48  A    between atoms: _138  and  _139
REMARK   49  A    between atoms: _138  and  _141
REMARK   50  A    between atoms: _143  and  _145
REMARK   51  A    between atoms: _145  and  _146
REMARK   52  A    between atoms: _145  and  _148
REMARK   53  A    between atoms: _148  and  _149
REMARK   54  A    between atoms: _154  and  _156
REMARK   55  A    between atoms: _156  and  _157
REMARK   56  A    between atoms: _156  and  _159
REMARK   57  A    between atoms: _159  and  _160
REMARK   58  A    between atoms: _160  and  _161
REMARK   59  A    between atoms: _164  and  _166
REMARK   60  A    between atoms: _166  and  _167
REMARK   61  A    between atoms: _166  and  _169
REMARK   62  A    between atoms: _169  and  _170
REMARK   63  A    between atoms: _170  and  _171
REMARK   64  A    between atoms: _174  and  _176
REMARK   65  A    between atoms: _176  and  _177
REMARK   66  A    between atoms: _176  and  _179
REMARK   67  A    between atoms: _179  and  _180
REMARK   68  A    between atoms: _190  and  _192
REMARK   69  A    between atoms: _192  and  _193
REMARK   70  A    between atoms: _192  and  _195
REMARK   71  A    between atoms: _195  and  _196
REMARK   72  A    between atoms: _199  and  _200
REMARK   73  A    between atoms: _205  and  _207
REMARK   74  A    between atoms: _207  and  _208
REMARK   75  A    between atoms: _207  and  _210
REMARK   76  A    between atoms: _210  and  _211
REMARK   77  A    between atoms: _216  and  _218
REMARK   78  A    between atoms: _218  and  _219
REMARK   79  A    between atoms: _218  and  _221
REMARK   80  A    between atoms: _221  and  _222
REMARK   81  A    between atoms: _232  and  _234
REMARK   82  A    between atoms: _234  and  _235
REMARK   83  A    between atoms: _234  and  _237
REMARK   84  A    between atoms: _237  and  _238
REMARK   85  A    between atoms: _248  and  _250
REMARK   86  A    between atoms: _250  and  _251
REMARK   87  A    between atoms: _250  and  _253
REMARK   88  A    between atoms: _253  and  _254
REMARK   89  A    between atoms: _259  and  _260
REMARK   90  A    between atoms: _262  and  _264
REMARK   91  A    between atoms: _264  and  _265
REMARK   92  A    between atoms: _264  and  _267
REMARK   93  A    between atoms: _267  and  _268
REMARK   94  A    between atoms: _270  and  _272
REMARK   95  A    between atoms: _272  and  _273
REMARK   96  A    between atoms: _272  and  _275
REMARK   97  A    between atoms: _275  and  _276
REMARK   98  A    between atoms: _276  and  _277
REMARK   99  A    between atoms: _280  and  _282
REMARK  100  A    between atoms: _282  and  _283
REMARK  101  A    between atoms: _282  and  _285
REMARK  102  A    between atoms: _285  and  _286
REMARK  103  A    between atoms: _292  and  _294
REMARK  104  A    between atoms: _294  and  _295
REMARK  105  A    between atoms: _297  and  _299
REMARK  106  A    between atoms: _299  and  _300
REMARK  107  A    between atoms: _299  and  _302
REMARK  108  A    between atoms: _302  and  _303
REMARK  109  A    between atoms: _309  and  _311
REMARK  110  A    between atoms: _311  and  _312
REMARK  111  A    between atoms: _311  and  _314
REMARK  112  A    between atoms: _314  and  _315
REMARK  113  A    between atoms: _315  and  _316
REMARK  114  A    between atoms: _321  and  _323
REMARK  115  A    between atoms: _323  and  _324
REMARK  116  A    between atoms: _323  and  _326
REMARK  117  A    between atoms: _326  and  _327
REMARK  118  A    between atoms: _327  and  _328
REMARK  119  A    between atoms: _328  and  _329
REMARK  120  A    between atoms: _329  and  _330
REMARK  121  A    between atoms: _334  and  _336
REMARK  122  A    between atoms: _336  and  _337
REMARK  123  A    between atoms: _336  and  _339
REMARK  124  A    between atoms: _339  and  _340
REMARK  125  A    between atoms: _342  and  _344
REMARK  126  A    between atoms: _344  and  _345
REMARK  127  A    between atoms: _344  and  _347
REMARK  128  A    between atoms: _347  and  _348
REMARK  129  A    between atoms: _358  and  _360
REMARK  130  A    between atoms: _360  and  _361
REMARK  131  A    between atoms: _360  and  _363
REMARK  132  A    between atoms: _363  and  _364
REMARK  133  A    between atoms: _364  and  _365
REMARK  134  A    between atoms: _370  and  _372
REMARK  135  A    between atoms: _372  and  _373
REMARK  136  A    between atoms: _372  and  _375
REMARK  137  A    between atoms: _375  and  _376
REMARK                            x       y       z     vdW  Elec       q    Type
REMARK                         _______ _______ _______ _____ _____    ______ ____
ROOT
ATOM      1  O   HOH     1      29.453  44.053  -7.344  0.00  0.00    +0.000 OA
ENDROOT
TORSDOF 0
REMARK  Name = ../refined-set-2016/2vjx/2vjx_pocket.pdb
REMARK  137 active torsions:
REMARK  status: ('A' for Active; 'I' for Inactive)
REMARK    1  A    between atoms: _1  and  _3
REMARK    2  A    between atoms: _3  and  _4
REMARK    3  A    between atoms: _3  and  _6
REMARK    4  A    between atoms: _6  and  _7
REMARK    5  A    between atoms: _12  and  _14
REMARK    6  A    between atoms: _14  and  _15
REMARK    7  A    between atoms: _14  and  _17
REMARK    8  A    between atoms: _17  and  _18
REMARK    9  A    between atoms: _28  and  _30
REMARK   10  A    between atoms: _30  and  _31
REMARK   11  A    between atoms: _30  and  _33
REMARK   12  A    between atoms: _33  and  _34
REMARK   13  A    between atoms: _37  and  _39
REMARK   14  A    between atoms: _39  and  _40
REMARK   15  A    between atoms: _39  and  _42
REMARK   16  A    between atoms: _42  and  _43
REMARK   17  A    between atoms: _53  and  _55
REMARK   18  A    between atoms: _55  and  _56
REMARK   19  A    between atoms: _58  and  _60
REMARK   20  A    between atoms: _60  and  _61
REMARK   21  A    between atoms: _60  and  _63
REMARK   22  A    between atoms: _63  and  _64
REMARK   23  A    between atoms: _69  and  _71
REMARK   24  A    between atoms: _71  and  _72
REMARK   25  A    between atoms: _71  and  _74
REMARK   26  A    between atoms: _74  and  _75
REMARK   27  A    between atoms: _78  and  _80
REMARK   28  A    between atoms: _80  and  _81
REMARK   29  A    between atoms: _80  and  _83
REMARK   30  A    between atoms: _83  and  _84
REMARK   31  A    between atoms: _84  and  _85
REMARK   32  A    between atoms: _85  and  _86
REMARK   33  A    between atoms: _95  and  _97
REMARK   34  A    between atoms: _97  and  _98
REMARK   35  A    between atoms: _97  and  _100
REMARK   36  A    between atoms: _100  and  _101
REMARK   37  A    between atoms: _111  and  _113
REMARK   38  A    between atoms: _113  and  _114
REMARK   39  A    between atoms: _116  and  _118
REMARK   40  A    between atoms: _118  and  _119
REMARK   41  A    between atoms: _121  and  _123
REMARK   42  A    between atoms: _123  and  _124
REMARK   43  A    between atoms: _123  and  _126
REMARK   44  A    between atoms: _126  and  _127
REMARK   45  A    between atoms: _130  and  _132
REMARK   46  A    between atoms: _132  and  _133
REMARK   47  A    between atoms: _136  and  _138
REMARK   48  A    between atoms: _138  and  _139
REMARK   49  A    between atoms: _138  and  _141
REMARK   50  A    between atoms: _143  and  _145
REMARK   51  A    between atoms: _145  and  _146
REMARK   52  A    between atoms: _145  and  _148
REMARK   53  A    between atoms: _148  and  _149
REMARK   54  A    between atoms: _154  and  _156
REMARK   55  A    between atoms: _156  and  _157
REMARK   56  A    between atoms: _156  and  _159
REMARK   57  A    between atoms: _159  and  _160
REMARK   58  A    between atoms: _160  and  _161
REMARK   59  A    between atoms: _164  and  _166
REMARK   60  A    between atoms: _166  and  _167
REMARK   61  A    between atoms: _166  and  _169
REMARK   62  A    between atoms: _169  and  _170
REMARK   63  A    between atoms: _170  and  _171
REMARK   64  A    between atoms: _174  and  _176
REMARK   65  A    between atoms: _176  and  _177
REMARK   66  A    between atoms: _176  and  _179
REMARK   67  A    between atoms: _179  and  _180
REMARK   68  A    between atoms: _190  and  _192
REMARK   69  A    between atoms: _192  and  _193
REMARK   70  A    between atoms: _192  and  _195
REMARK   71  A    between atoms: _195  and  _196
REMARK   72  A    between atoms: _199  and  _200
REMARK   73  A    between atoms: _205  and  _207
REMARK   74  A    between atoms: _207  and  _208
REMARK   75  A    between atoms: _207  and  _210
REMARK   76  A    between atoms: _210  and  _211
REMARK   77  A    between atoms: _216  and  _218
REMARK   78  A    between atoms: _218  and  _219
REMARK   79  A    between atoms: _218  and  _221
REMARK   80  A    between atoms: _221  and  _222
REMARK   81  A    between atoms: _232  and  _234
REMARK   82  A    between atoms: _234  and  _235
REMARK   83  A    between atoms: _234  and  _237
REMARK   84  A    between atoms: _237  and  _238
REMARK   85  A    between atoms: _248  and  _250
REMARK   86  A    between atoms: _250  and  _251
REMARK   87  A    between atoms: _250  and  _253
REMARK   88  A    between atoms: _253  and  _254
REMARK   89  A    between atoms: _259  and  _260
REMARK   90  A    between atoms: _262  and  _264
REMARK   91  A    between atoms: _264  and  _265
REMARK   92  A    between atoms: _264  and  _267
REMARK   93  A    between atoms: _267  and  _268
REMARK   94  A    between atoms: _270  and  _272
REMARK   95  A    between atoms: _272  and  _273
REMARK   96  A    between atoms: _272  and  _275
REMARK   97  A    between atoms: _275  and  _276
REMARK   98  A    between atoms: _276  and  _277
REMARK   99  A    between atoms: _280  and  _282
REMARK  100  A    between atoms: _282  and  _283
REMARK  101  A    between atoms: _282  and  _285
REMARK  102  A    between atoms: _285  and  _286
REMARK  103  A    between atoms: _292  and  _294
REMARK  104  A    between atoms: _294  and  _295
REMARK  105  A    between atoms: _297  and  _299
REMARK  106  A    between atoms: _299  and  _300
REMARK  107  A    between atoms: _299  and  _302
REMARK  108  A    between atoms: _302  and  _303
REMARK  109  A    between atoms: _309  and  _311
REMARK  110  A    between atoms: _311  and  _312
REMARK  111  A    between atoms: _311  and  _314
REMARK  112  A    between atoms: _314  and  _315
REMARK  113  A    between atoms: _315  and  _316
REMARK  114  A    between atoms: _321  and  _323
REMARK  115  A    between atoms: _323  and  _324
REMARK  116  A    between atoms: _323  and  _326
REMARK  117  A    between atoms: _326  and  _327
REMARK  118  A    between atoms: _327  and  _328
REMARK  119  A    between atoms: _328  and  _329
REMARK  120  A    between atoms: _329  and  _330
REMARK  121  A    between atoms: _334  and  _336
REMARK  122  A    between atoms: _336  and  _337
REMARK  123  A    between atoms: _336  and  _339
REMARK  124  A    between atoms: _339  and  _340
REMARK  125  A    between atoms: _342  and  _344
REMARK  126  A    between atoms: _344  and  _345
REMARK  127  A    between atoms: _344  and  _347
REMARK  128  A    between atoms: _347  and  _348
REMARK  129  A    between atoms: _358  and  _360
REMARK  130  A    between atoms: _360  and  _361
REMARK  131  A    between atoms: _360  and  _363
REMARK  132  A    between atoms: _363  and  _364
REMARK  133  A    between atoms: _364  and  _365
REMARK  134  A    between atoms: _370  and  _372
REMARK  135  A    between atoms: _372  and  _373
REMARK  136  A    between atoms: _372  and  _375
REMARK  137  A    between atoms: _375  and  _376
REMARK                            x       y       z     vdW  Elec       q    Type
REMARK                         _______ _______ _______ _____ _____    ______ ____
ROOT
ATOM      1  O   HOH     1      28.055  53.704  -6.217  0.00  0.00    +0.000 OA
ENDROOT
TORSDOF 0
