REMARK  Name = ../refined-set-2016/2vmd/2vmd_pocket.pdb
REMARK  92 active torsions:
REMARK  status: ('A' for Active; 'I' for Inactive)
REMARK    1  A    between atoms: _1  and  _3
REMARK    2  A    between atoms: _3  and  _4
REMARK    3  A    between atoms: _6  and  _8
REMARK    4  A    between atoms: _8  and  _9
REMARK    5  A    between atoms: _8  and  _11
REMARK    6  A    between atoms: _11  and  _12
REMARK    7  A    between atoms: _14  and  _16
REMARK    8  A    between atoms: _16  and  _17
REMARK    9  A    between atoms: _16  and  _19
REMARK   10  A    between atoms: _19  and  _20
REMARK   11  A    between atoms: _23  and  _25
REMARK   12  A    between atoms: _25  and  _26
REMARK   13  A    between atoms: _25  and  _28
REMARK   14  A    between atoms: _28  and  _29
REMARK   15  A    between atoms: _34  and  _36
REMARK   16  A    between atoms: _36  and  _37
REMARK   17  A    between atoms: _36  and  _39
REMARK   18  A    between atoms: _39  and  _40
REMARK   19  A    between atoms: _40  and  _41
REMARK   20  A    between atoms: _46  and  _48
REMARK   21  A    between atoms: _48  and  _49
REMARK   22  A    between atoms: _48  and  _51
REMARK   23  A    between atoms: _51  and  _52
REMARK   24  A    between atoms: _52  and  _53
REMARK   25  A    between atoms: _55  and  _57
REMARK   26  A    between atoms: _57  and  _58
REMARK   27  A    between atoms: _57  and  _60
REMARK   28  A    between atoms: _60  and  _61
REMARK   29  A    between atoms: _61  and  _62
REMARK   30  A    between atoms: _62  and  _63
REMARK   31  A    between atoms: _72  and  _74
REMARK   32  A    between atoms: _74  and  _75
REMARK   33  A    between atoms: _74  and  _77
REMARK   34  A    between atoms: _77  and  _78
REMARK   35  A    between atoms: _88  and  _90
REMARK   36  A    between atoms: _90  and  _91
REMARK   37  A    between atoms: _90  and  _93
REMARK   38  A    between atoms: _93  and  _94
REMARK   39  A    between atoms: _104  and  _106
REMARK   40  A    between atoms: _106  and  _107
REMARK   41  A    between atoms: _109  and  _111
REMARK   42  A    between atoms: _111  and  _112
REMARK   43  A    between atoms: _111  and  _114
REMARK   44  A    between atoms: _114  and  _115
REMARK   45  A    between atoms: _120  and  _122
REMARK   46  A    between atoms: _122  and  _123
REMARK   47  A    between atoms: _122  and  _125
REMARK   48  A    between atoms: _125  and  _126
REMARK   49  A    between atoms: _131  and  _133
REMARK   50  A    between atoms: _133  and  _134
REMARK   51  A    between atoms: _133  and  _136
REMARK   52  A    between atoms: _136  and  _137
REMARK   53  A    between atoms: _137  and  _138
REMARK   54  A    between atoms: _138  and  _139
REMARK   55  A    between atoms: _148  and  _150
REMARK   56  A    between atoms: _150  and  _151
REMARK   57  A    between atoms: _150  and  _153
REMARK   58  A    between atoms: _153  and  _154
REMARK   59  A    between atoms: _159  and  _161
REMARK   60  A    between atoms: _161  and  _162
REMARK   61  A    between atoms: _161  and  _164
REMARK   62  A    between atoms: _164  and  _165
REMARK   63  A    between atoms: _165  and  _166
REMARK   64  A    between atoms: _166  and  _167
REMARK   65  A    between atoms: _167  and  _168
REMARK   66  A    between atoms: _172  and  _174
REMARK   67  A    between atoms: _174  and  _175
REMARK   68  A    between atoms: _174  and  _177
REMARK   69  A    between atoms: _180  and  _182
REMARK   70  A    between atoms: _182  and  _183
REMARK   71  A    between atoms: _182  and  _185
REMARK   72  A    between atoms: _185  and  _186
REMARK   73  A    between atoms: _189  and  _191
REMARK   74  A    between atoms: _191  and  _192
REMARK   75  A    between atoms: _195  and  _197
REMARK   76  A    between atoms: _197  and  _198
REMARK   77  A    between atoms: _197  and  _200
REMARK   78  A    between atoms: _200  and  _201
REMARK   79  A    between atoms: _206  and  _208
REMARK   80  A    between atoms: _208  and  _209
REMARK   81  A    between atoms: _212  and  _214
REMARK   82  A    between atoms: _214  and  _215
REMARK   83  A    between atoms: _214  and  _217
REMARK   84  A    between atoms: _220  and  _222
REMARK   85  A    between atoms: _222  and  _223
REMARK   86  A    between atoms: _222  and  _225
REMARK   87  A    between atoms: _225  and  _226
REMARK   88  A    between atoms: _231  and  _232
REMARK   89  A    between atoms: _234  and  _236
REMARK   90  A    between atoms: _236  and  _237
REMARK   91  A    between atoms: _236  and  _239
REMARK   92  A    between atoms: _239  and  _240
REMARK                            x       y       z     vdW  Elec       q    Type
REMARK                         _______ _______ _______ _____ _____    ______ ____
ROOT
ATOM      1  C   GLY A   1      -6.401  16.359   9.988  0.00  0.00    +0.240 C 
ATOM      2  N   SER A   2      -5.961  17.148  10.970  0.00  0.00    -0.296 N 
ATOM      3  H   SER A   2      -5.498  18.044  10.717  0.00  0.00    +0.150 HD
ATOM      4  O   GLY A   1      -6.948  15.254  10.173  0.00  0.00    -0.274 OA
ENDROOT
BRANCH   1   5
ATOM      5  CA  GLY A   1      -6.194  16.867   8.563  0.00  0.00    +0.169 C 
BRANCH   5   6
ATOM      6  N   GLY A   1      -6.816  15.940   7.612  0.00  0.00    -0.236 NA
ATOM      7  H   GLY A   1      -6.228  15.226   7.137  0.00  0.00    +0.142 HD
ENDBRANCH   5   6
ENDBRANCH   1   5
BRANCH   2   8
ATOM      8  CA  SER A   2      -6.102  16.807  12.399  0.00  0.00    +0.166 C 
BRANCH   8   9
ATOM      9  CB  SER A   2      -7.552  16.583  12.763  0.00  0.00    +0.229 C 
ATOM     10  OG  SER A   2      -8.395  17.482  12.606  0.00  0.00    -0.286 OA
ENDBRANCH   8   9
BRANCH   8  11
ATOM     11  C   SER A   2      -5.583  17.908  13.297  0.00  0.00    +0.165 C 
BRANCH  11  12
ATOM     12  O   SER A   2      -4.187  18.115  13.119  0.00  0.00    -0.380 OA
ATOM     13  H   SER A   2      -3.883  18.840  13.720  0.00  0.00    +0.211 HD
ENDBRANCH  11  12
ENDBRANCH   8  11
ENDBRANCH   2   8
TORSDOF 6
REMARK  Name = ../refined-set-2016/2vmd/2vmd_pocket.pdb
REMARK  92 active torsions:
REMARK  status: ('A' for Active; 'I' for Inactive)
REMARK    1  A    between atoms: _1  and  _3
REMARK    2  A    between atoms: _3  and  _4
REMARK    3  A    between atoms: _6  and  _8
REMARK    4  A    between atoms: _8  and  _9
REMARK    5  A    between atoms: _8  and  _11
REMARK    6  A    between atoms: _11  and  _12
REMARK    7  A    between atoms: _14  and  _16
REMARK    8  A    between atoms: _16  and  _17
REMARK    9  A    between atoms: _16  and  _19
REMARK   10  A    between atoms: _19  and  _20
REMARK   11  A    between atoms: _23  and  _25
REMARK   12  A    between atoms: _25  and  _26
REMARK   13  A    between atoms: _25  and  _28
REMARK   14  A    between atoms: _28  and  _29
REMARK   15  A    between atoms: _34  and  _36
REMARK   16  A    between atoms: _36  and  _37
REMARK   17  A    between atoms: _36  and  _39
REMARK   18  A    between atoms: _39  and  _40
REMARK   19  A    between atoms: _40  and  _41
REMARK   20  A    between atoms: _46  and  _48
REMARK   21  A    between atoms: _48  and  _49
REMARK   22  A    between atoms: _48  and  _51
REMARK   23  A    between atoms: _51  and  _52
REMARK   24  A    between atoms: _52  and  _53
REMARK   25  A    between atoms: _55  and  _57
REMARK   26  A    between atoms: _57  and  _58
REMARK   27  A    between atoms: _57  and  _60
REMARK   28  A    between atoms: _60  and  _61
REMARK   29  A    between atoms: _61  and  _62
REMARK   30  A    between atoms: _62  and  _63
REMARK   31  A    between atoms: _72  and  _74
REMARK   32  A    between atoms: _74  and  _75
REMARK   33  A    between atoms: _74  and  _77
REMARK   34  A    between atoms: _77  and  _78
REMARK   35  A    between atoms: _88  and  _90
REMARK   36  A    between atoms: _90  and  _91
REMARK   37  A    between atoms: _90  and  _93
REMARK   38  A    between atoms: _93  and  _94
REMARK   39  A    between atoms: _104  and  _106
REMARK   40  A    between atoms: _106  and  _107
REMARK   41  A    between atoms: _109  and  _111
REMARK   42  A    between atoms: _111  and  _112
REMARK   43  A    between atoms: _111  and  _114
REMARK   44  A    between atoms: _114  and  _115
REMARK   45  A    between atoms: _120  and  _122
REMARK   46  A    between atoms: _122  and  _123
REMARK   47  A    between atoms: _122  and  _125
REMARK   48  A    between atoms: _125  and  _126
REMARK   49  A    between atoms: _131  and  _133
REMARK   50  A    between atoms: _133  and  _134
REMARK   51  A    between atoms: _133  and  _136
REMARK   52  A    between atoms: _136  and  _137
REMARK   53  A    between atoms: _137  and  _138
REMARK   54  A    between atoms: _138  and  _139
REMARK   55  A    between atoms: _148  and  _150
REMARK   56  A    between atoms: _150  and  _151
REMARK   57  A    between atoms: _150  and  _153
REMARK   58  A    between atoms: _153  and  _154
REMARK   59  A    between atoms: _159  and  _161
REMARK   60  A    between atoms: _161  and  _162
REMARK   61  A    between atoms: _161  and  _164
REMARK   62  A    between atoms: _164  and  _165
REMARK   63  A    between atoms: _165  and  _166
REMARK   64  A    between atoms: _166  and  _167
REMARK   65  A    between atoms: _167  and  _168
REMARK   66  A    between atoms: _172  and  _174
REMARK   67  A    between atoms: _174  and  _175
REMARK   68  A    between atoms: _174  and  _177
REMARK   69  A    between atoms: _180  and  _182
REMARK   70  A    between atoms: _182  and  _183
REMARK   71  A    between atoms: _182  and  _185
REMARK   72  A    between atoms: _185  and  _186
REMARK   73  A    between atoms: _189  and  _191
REMARK   74  A    between atoms: _191  and  _192
REMARK   75  A    between atoms: _195  and  _197
REMARK   76  A    between atoms: _197  and  _198
REMARK   77  A    between atoms: _197  and  _200
REMARK   78  A    between atoms: _200  and  _201
REMARK   79  A    between atoms: _206  and  _208
REMARK   80  A    between atoms: _208  and  _209
REMARK   81  A    between atoms: _212  and  _214
REMARK   82  A    between atoms: _214  and  _215
REMARK   83  A    between atoms: _214  and  _217
REMARK   84  A    between atoms: _220  and  _222
REMARK   85  A    between atoms: _222  and  _223
REMARK   86  A    between atoms: _222  and  _225
REMARK   87  A    between atoms: _225  and  _226
REMARK   88  A    between atoms: _231  and  _232
REMARK   89  A    between atoms: _234  and  _236
REMARK   90  A    between atoms: _236  and  _237
REMARK   91  A    between atoms: _236  and  _239
REMARK   92  A    between atoms: _239  and  _240
REMARK                            x       y       z     vdW  Elec       q    Type
REMARK                         _______ _______ _______ _____ _____    ______ ____
ROOT
ATOM      1  C   ASP A   1      -1.414   7.116   3.384  0.00  0.00    +0.239 C 
ATOM      2  O   ASP A   1      -0.354   7.593   3.849  0.00  0.00    -0.274 OA
ATOM      3  N   ASN A   2      -1.509   6.570   2.168  0.00  0.00    -0.298 N 
ATOM      4  H   ASN A   2      -2.439   6.264   1.816  0.00  0.00    +0.150 HD
ENDROOT
BRANCH   1   5
ATOM      5  CA  ASP A   1      -2.685   7.078   4.223  0.00  0.00    +0.156 C 
BRANCH   5   6
ATOM      6  N   ASP A   1      -2.488   5.992   5.154  0.00  0.00    -0.238 NA
ATOM      7  H   ASP A   1      -1.682   6.045   5.810  0.00  0.00    +0.142 HD
ENDBRANCH   5   6
BRANCH   5   8
ATOM      8  CB  ASP A   1      -2.872   8.392   4.986  0.00  0.00    +0.140 C 
BRANCH   8   9
ATOM      9  CG  ASP A   1      -2.709   9.635   4.099  0.00  0.00    +0.367 C 
ATOM     10  OD2 ASP A   1      -2.375  10.739   4.651  0.00  0.00    -0.246 OA
ATOM     11  OD1 ASP A   1      -2.926   9.508   2.862  0.00  0.00    -0.246 OA
ENDBRANCH   8   9
ENDBRANCH   5   8
ENDBRANCH   1   5
BRANCH   3  12
ATOM     12  CA  ASN A   2      -0.323   6.394   1.320  0.00  0.00    +0.146 C 
BRANCH  12  13
ATOM     13  C   ASN A   2       0.795   5.674   2.091  0.00  0.00    +0.227 C 
ATOM     14  O   ASN A   2       1.941   6.144   2.107  0.00  0.00    -0.286 OA
ENDBRANCH  12  13
BRANCH  12  15
ATOM     15  CB  ASN A   2       0.184   7.780   0.806  0.00  0.00    +0.112 C 
BRANCH  15  16
ATOM     16  CG  ASN A   2      -0.698   8.348  -0.312  0.00  0.00    +0.222 C 
ATOM     17  OD1 ASN A   2      -0.818   9.569  -0.462  0.00  0.00    -0.275 OA
ATOM     18  ND2 ASN A   2      -1.344   7.468  -1.064  0.00  0.00    -0.329 N 
ATOM     19 HD21 ASN A   2      -1.212   6.449  -0.902  0.00  0.00    +0.145 HD
ATOM     20 HD22 ASN A   2      -1.983   7.796  -1.816  0.00  0.00    +0.145 HD
ENDBRANCH  15  16
ENDBRANCH  12  15
ENDBRANCH   3  12
TORSDOF 8
REMARK  Name = ../refined-set-2016/2vmd/2vmd_pocket.pdb
REMARK  92 active torsions:
REMARK  status: ('A' for Active; 'I' for Inactive)
REMARK    1  A    between atoms: _1  and  _3
REMARK    2  A    between atoms: _3  and  _4
REMARK    3  A    between atoms: _6  and  _8
REMARK    4  A    between atoms: _8  and  _9
REMARK    5  A    between atoms: _8  and  _11
REMARK    6  A    between atoms: _11  and  _12
REMARK    7  A    between atoms: _14  and  _16
REMARK    8  A    between atoms: _16  and  _17
REMARK    9  A    between atoms: _16  and  _19
REMARK   10  A    between atoms: _19  and  _20
REMARK   11  A    between atoms: _23  and  _25
REMARK   12  A    between atoms: _25  and  _26
REMARK   13  A    between atoms: _25  and  _28
REMARK   14  A    between atoms: _28  and  _29
REMARK   15  A    between atoms: _34  and  _36
REMARK   16  A    between atoms: _36  and  _37
REMARK   17  A    between atoms: _36  and  _39
REMARK   18  A    between atoms: _39  and  _40
REMARK   19  A    between atoms: _40  and  _41
REMARK   20  A    between atoms: _46  and  _48
REMARK   21  A    between atoms: _48  and  _49
REMARK   22  A    between atoms: _48  and  _51
REMARK   23  A    between atoms: _51  and  _52
REMARK   24  A    between atoms: _52  and  _53
REMARK   25  A    between atoms: _55  and  _57
REMARK   26  A    between atoms: _57  and  _58
REMARK   27  A    between atoms: _57  and  _60
REMARK   28  A    between atoms: _60  and  _61
REMARK   29  A    between atoms: _61  and  _62
REMARK   30  A    between atoms: _62  and  _63
REMARK   31  A    between atoms: _72  and  _74
REMARK   32  A    between atoms: _74  and  _75
REMARK   33  A    between atoms: _74  and  _77
REMARK   34  A    between atoms: _77  and  _78
REMARK   35  A    between atoms: _88  and  _90
REMARK   36  A    between atoms: _90  and  _91
REMARK   37  A    between atoms: _90  and  _93
REMARK   38  A    between atoms: _93  and  _94
REMARK   39  A    between atoms: _104  and  _106
REMARK   40  A    between atoms: _106  and  _107
REMARK   41  A    between atoms: _109  and  _111
REMARK   42  A    between atoms: _111  and  _112
REMARK   43  A    between atoms: _111  and  _114
REMARK   44  A    between atoms: _114  and  _115
REMARK   45  A    between atoms: _120  and  _122
REMARK   46  A    between atoms: _122  and  _123
REMARK   47  A    between atoms: _122  and  _125
REMARK   48  A    between atoms: _125  and  _126
REMARK   49  A    between atoms: _131  and  _133
REMARK   50  A    between atoms: _133  and  _134
REMARK   51  A    between atoms: _133  and  _136
REMARK   52  A    between atoms: _136  and  _137
REMARK   53  A    between atoms: _137  and  _138
REMARK   54  A    between atoms: _138  and  _139
REMARK   55  A    between atoms: _148  and  _150
REMARK   56  A    between atoms: _150  and  _151
REMARK   57  A    between atoms: _150  and  _153
REMARK   58  A    between atoms: _153  and  _154
REMARK   59  A    between atoms: _159  and  _161
REMARK   60  A    between atoms: _161  and  _162
REMARK   61  A    between atoms: _161  and  _164
REMARK   62  A    between atoms: _164  and  _165
REMARK   63  A    between atoms: _165  and  _166
REMARK   64  A    between atoms: _166  and  _167
REMARK   65  A    between atoms: _167  and  _168
REMARK   66  A    between atoms: _172  and  _174
REMARK   67  A    between atoms: _174  and  _175
REMARK   68  A    between atoms: _174  and  _177
REMARK   69  A    between atoms: _180  and  _182
REMARK   70  A    between atoms: _182  and  _183
REMARK   71  A    between atoms: _182  and  _185
REMARK   72  A    between atoms: _185  and  _186
REMARK   73  A    between atoms: _189  and  _191
REMARK   74  A    between atoms: _191  and  _192
REMARK   75  A    between atoms: _195  and  _197
REMARK   76  A    between atoms: _197  and  _198
REMARK   77  A    between atoms: _197  and  _200
REMARK   78  A    between atoms: _200  and  _201
REMARK   79  A    between atoms: _206  and  _208
REMARK   80  A    between atoms: _208  and  _209
REMARK   81  A    between atoms: _212  and  _214
REMARK   82  A    between atoms: _214  and  _215
REMARK   83  A    between atoms: _214  and  _217
REMARK   84  A    between atoms: _220  and  _222
REMARK   85  A    between atoms: _222  and  _223
REMARK   86  A    between atoms: _222  and  _225
REMARK   87  A    between atoms: _225  and  _226
REMARK   88  A    between atoms: _231  and  _232
REMARK   89  A    between atoms: _234  and  _236
REMARK   90  A    between atoms: _236  and  _237
REMARK   91  A    between atoms: _236  and  _239
REMARK   92  A    between atoms: _239  and  _240
REMARK                            x       y       z     vdW  Elec       q    Type
REMARK                         _______ _______ _______ _____ _____    ______ ____
ROOT
ATOM      1  CA  ARG A   3      -1.113   7.892  12.249  0.00  0.00    +0.149 C 
ENDROOT
BRANCH   1   3
ATOM      2  C   MET A   2       0.042   6.183  10.907  0.00  0.00    +0.241 C 
ATOM      3  N   ARG A   3      -1.084   6.776  11.296  0.00  0.00    -0.297 N 
ATOM      4  H   ARG A   3      -1.985   6.433  10.907  0.00  0.00    +0.150 HD
ATOM      5  O   MET A   2       1.171   6.557  11.259  0.00  0.00    -0.273 OA
BRANCH   2   6
ATOM      6  CA  MET A   2      -0.115   5.030   9.912  0.00  0.00    +0.149 C 
BRANCH   6   8
ATOM      7  C   GLN A   1       0.517   5.812   7.665  0.00  0.00    +0.238 C 
ATOM      8  N   MET A   2       0.846   5.217   8.813  0.00  0.00    -0.297 N 
ATOM      9  H   MET A   2       1.819   4.872   8.936  0.00  0.00    +0.150 HD
ATOM     10  O   GLN A   1      -0.641   6.112   7.366  0.00  0.00    -0.274 OA
BRANCH   7  11
ATOM     11  CA  GLN A   1       1.649   6.168   6.705  0.00  0.00    +0.145 C 
BRANCH  11  12
ATOM     12  N   GLN A   1       1.374   5.614   5.360  0.00  0.00    -0.238 NA
ATOM     13  H   GLN A   1       0.870   6.202   4.666  0.00  0.00    +0.142 HD
ENDBRANCH  11  12
BRANCH  11  14
ATOM     14  CB  GLN A   1       1.773   7.708   6.676  0.00  0.00    +0.036 C 
BRANCH  14  15
ATOM     15  CG  GLN A   1       2.485   8.268   7.932  0.00  0.00    +0.087 C 
BRANCH  15  16
ATOM     16  CD  GLN A   1       3.969   7.985   7.847  0.00  0.00    +0.219 C 
ATOM     17  NE2 GLN A   1       4.708   8.226   8.934  0.00  0.00    -0.329 N 
ATOM     18 HE21 GLN A   1       4.257   8.584   9.800  0.00  0.00    +0.145 HD
ATOM     19 HE22 GLN A   1       5.734   8.056   8.914  0.00  0.00    +0.145 HD
ATOM     20  OE1 GLN A   1       4.448   7.559   6.787  0.00  0.00    -0.275 OA
ENDBRANCH  15  16
ENDBRANCH  14  15
ENDBRANCH  11  14
ENDBRANCH   7  11
ENDBRANCH   6   8
BRANCH   6  21
ATOM     21  CB  MET A   2       0.097   3.689  10.622  0.00  0.00    +0.041 C 
BRANCH  21  22
ATOM     22  CG  MET A   2      -0.788   3.525  11.837  0.00  0.00    +0.060 C 
BRANCH  22  23
ATOM     23  SD  MET A   2      -2.490   3.399  11.298  0.00  0.00    -0.139 S 
ATOM     24  CE  MET A   2      -2.462   1.687  10.768  0.00  0.00    +0.069 C 
ENDBRANCH  22  23
ENDBRANCH  21  22
ENDBRANCH   6  21
ENDBRANCH   2   6
ENDBRANCH   1   3
BRANCH   1  25
ATOM     25  C   ARG A   3      -2.251   7.693  13.258  0.00  0.00    +0.241 C 
ATOM     26  N   TRP A   4      -1.910   7.426  14.514  0.00  0.00    -0.298 N 
ATOM     27  H   TRP A   4      -0.912   7.262  14.755  0.00  0.00    +0.150 HD
ATOM     28  O   ARG A   3      -3.432   7.762  12.891  0.00  0.00    -0.273 OA
BRANCH  26  29
ATOM     29  CA  TRP A   4      -2.941   7.361  15.571  0.00  0.00    +0.141 C 
BRANCH  29  30
ATOM     30  C   TRP A   4      -2.269   7.767  16.872  0.00  0.00    +0.227 C 
ATOM     31  O   TRP A   4      -1.036   7.615  17.049  0.00  0.00    -0.286 OA
ENDBRANCH  29  30
BRANCH  29  32
ATOM     32  CB  TRP A   4      -3.719   6.003  15.656  0.00  0.00    +0.056 C 
BRANCH  32  33
ATOM     33  CG  TRP A   4      -2.883   4.774  15.989  0.00  0.00    -0.002 A 
ATOM     34  CD2 TRP A   4      -2.377   4.386  17.276  0.00  0.00    +0.013 A 
ATOM     35  CE3 TRP A   4      -2.480   4.927  18.565  0.00  0.00    +0.001 A 
ATOM     36  CZ3 TRP A   4      -1.869   4.277  19.609  0.00  0.00    +0.000 A 
ATOM     37  CH2 TRP A   4      -1.137   3.082  19.401  0.00  0.00    +0.001 A 
ATOM     38  CZ2 TRP A   4      -1.018   2.534  18.148  0.00  0.00    +0.017 A 
ATOM     39  CE2 TRP A   4      -1.632   3.208  17.093  0.00  0.00    +0.056 A 
ATOM     40  NE1 TRP A   4      -1.698   2.892  15.767  0.00  0.00    -0.352 N 
ATOM     41  HE1 TRP A   4      -1.247   2.068  15.320  0.00  0.00    +0.166 HD
ATOM     42  CD1 TRP A   4      -2.452   3.832  15.119  0.00  0.00    +0.068 A 
ENDBRANCH  32  33
ENDBRANCH  29  32
ENDBRANCH  26  29
ENDBRANCH   1  25
BRANCH   1  43
ATOM     43  CB  ARG A   3      -1.290   9.211  11.518  0.00  0.00    +0.033 C 
BRANCH  43  44
ATOM     44  CG  ARG A   3      -0.231   9.500  10.472  0.00  0.00    +0.045 C 
BRANCH  44  45
ATOM     45  CD  ARG A   3      -0.539  10.840   9.809  0.00  0.00    +0.174 C 
BRANCH  45  46
ATOM     46  NE  ARG A   3       0.433  11.199   8.784  0.00  0.00    -0.265 N 
ATOM     47  HE  ARG A   3       1.347  11.585   9.096  0.00  0.00    +0.259 HD
ATOM     48  CZ  ARG A   3       0.230  11.066   7.480  0.00  0.00    +0.342 C 
ATOM     49  NH2 ARG A   3      -0.924  10.583   7.043  0.00  0.00    -0.292 N 
ATOM     50 HH21 ARG A   3      -1.664  10.311   7.721  0.00  0.00    +0.255 HD
ATOM     51 HH22 ARG A   3      -1.090  10.476   6.022  0.00  0.00    +0.255 HD
ATOM     52  NH1 ARG A   3       1.163  11.467   6.612  0.00  0.00    -0.292 N 
ATOM     53 HH11 ARG A   3       2.050  11.884   6.958  0.00  0.00    +0.255 HD
ATOM     54 HH12 ARG A   3       1.002  11.362   5.590  0.00  0.00    +0.255 HD
ENDBRANCH  45  46
ENDBRANCH  44  45
ENDBRANCH  43  44
ENDBRANCH   1  43
TORSDOF 20
REMARK  Name = ../refined-set-2016/2vmd/2vmd_pocket.pdb
REMARK  92 active torsions:
REMARK  status: ('A' for Active; 'I' for Inactive)
REMARK    1  A    between atoms: _1  and  _3
REMARK    2  A    between atoms: _3  and  _4
REMARK    3  A    between atoms: _6  and  _8
REMARK    4  A    between atoms: _8  and  _9
REMARK    5  A    between atoms: _8  and  _11
REMARK    6  A    between atoms: _11  and  _12
REMARK    7  A    between atoms: _14  and  _16
REMARK    8  A    between atoms: _16  and  _17
REMARK    9  A    between atoms: _16  and  _19
REMARK   10  A    between atoms: _19  and  _20
REMARK   11  A    between atoms: _23  and  _25
REMARK   12  A    between atoms: _25  and  _26
REMARK   13  A    between atoms: _25  and  _28
REMARK   14  A    between atoms: _28  and  _29
REMARK   15  A    between atoms: _34  and  _36
REMARK   16  A    between atoms: _36  and  _37
REMARK   17  A    between atoms: _36  and  _39
REMARK   18  A    between atoms: _39  and  _40
REMARK   19  A    between atoms: _40  and  _41
REMARK   20  A    between atoms: _46  and  _48
REMARK   21  A    between atoms: _48  and  _49
REMARK   22  A    between atoms: _48  and  _51
REMARK   23  A    between atoms: _51  and  _52
REMARK   24  A    between atoms: _52  and  _53
REMARK   25  A    between atoms: _55  and  _57
REMARK   26  A    between atoms: _57  and  _58
REMARK   27  A    between atoms: _57  and  _60
REMARK   28  A    between atoms: _60  and  _61
REMARK   29  A    between atoms: _61  and  _62
REMARK   30  A    between atoms: _62  and  _63
REMARK   31  A    between atoms: _72  and  _74
REMARK   32  A    between atoms: _74  and  _75
REMARK   33  A    between atoms: _74  and  _77
REMARK   34  A    between atoms: _77  and  _78
REMARK   35  A    between atoms: _88  and  _90
REMARK   36  A    between atoms: _90  and  _91
REMARK   37  A    between atoms: _90  and  _93
REMARK   38  A    between atoms: _93  and  _94
REMARK   39  A    between atoms: _104  and  _106
REMARK   40  A    between atoms: _106  and  _107
REMARK   41  A    between atoms: _109  and  _111
REMARK   42  A    between atoms: _111  and  _112
REMARK   43  A    between atoms: _111  and  _114
REMARK   44  A    between atoms: _114  and  _115
REMARK   45  A    between atoms: _120  and  _122
REMARK   46  A    between atoms: _122  and  _123
REMARK   47  A    between atoms: _122  and  _125
REMARK   48  A    between atoms: _125  and  _126
REMARK   49  A    between atoms: _131  and  _133
REMARK   50  A    between atoms: _133  and  _134
REMARK   51  A    between atoms: _133  and  _136
REMARK   52  A    between atoms: _136  and  _137
REMARK   53  A    between atoms: _137  and  _138
REMARK   54  A    between atoms: _138  and  _139
REMARK   55  A    between atoms: _148  and  _150
REMARK   56  A    between atoms: _150  and  _151
REMARK   57  A    between atoms: _150  and  _153
REMARK   58  A    between atoms: _153  and  _154
REMARK   59  A    between atoms: _159  and  _161
REMARK   60  A    between atoms: _161  and  _162
REMARK   61  A    between atoms: _161  and  _164
REMARK   62  A    between atoms: _164  and  _165
REMARK   63  A    between atoms: _165  and  _166
REMARK   64  A    between atoms: _166  and  _167
REMARK   65  A    between atoms: _167  and  _168
REMARK   66  A    between atoms: _172  and  _174
REMARK   67  A    between atoms: _174  and  _175
REMARK   68  A    between atoms: _174  and  _177
REMARK   69  A    between atoms: _180  and  _182
REMARK   70  A    between atoms: _182  and  _183
REMARK   71  A    between atoms: _182  and  _185
REMARK   72  A    between atoms: _185  and  _186
REMARK   73  A    between atoms: _189  and  _191
REMARK   74  A    between atoms: _191  and  _192
REMARK   75  A    between atoms: _195  and  _197
REMARK   76  A    between atoms: _197  and  _198
REMARK   77  A    between atoms: _197  and  _200
REMARK   78  A    between atoms: _200  and  _201
REMARK   79  A    between atoms: _206  and  _208
REMARK   80  A    between atoms: _208  and  _209
REMARK   81  A    between atoms: _212  and  _214
REMARK   82  A    between atoms: _214  and  _215
REMARK   83  A    between atoms: _214  and  _217
REMARK   84  A    between atoms: _220  and  _222
REMARK   85  A    between atoms: _222  and  _223
REMARK   86  A    between atoms: _222  and  _225
REMARK   87  A    between atoms: _225  and  _226
REMARK   88  A    between atoms: _231  and  _232
REMARK   89  A    between atoms: _234  and  _236
REMARK   90  A    between atoms: _236  and  _237
REMARK   91  A    between atoms: _236  and  _239
REMARK   92  A    between atoms: _239  and  _240
REMARK                            x       y       z     vdW  Elec       q    Type
REMARK                         _______ _______ _______ _____ _____    ______ ____
ROOT
ATOM      1  C   GLY A   2      -4.541  13.093   7.063  0.00  0.00    +0.243 C 
ATOM      2  O   GLY A   2      -5.577  13.639   7.453  0.00  0.00    -0.273 OA
ATOM      3  N   ASN A   3      -4.539  12.057   6.228  0.00  0.00    -0.297 N 
ATOM      4  H   ASN A   3      -3.635  11.625   5.950  0.00  0.00    +0.150 HD
ENDROOT
BRANCH   1   5
ATOM      5  CA  GLY A   2      -3.184  13.588   7.552  0.00  0.00    +0.176 C 
BRANCH   5   8
ATOM      6  C   TRP A   1      -3.727  12.931   9.826  0.00  0.00    +0.239 C 
ATOM      7  O   TRP A   1      -3.906  11.749   9.499  0.00  0.00    -0.274 OA
ATOM      8  N   GLY A   2      -3.223  13.838   8.996  0.00  0.00    -0.296 N 
ATOM      9  H   GLY A   2      -2.853  14.733   9.374  0.00  0.00    +0.150 HD
BRANCH   6  10
ATOM     10  CA  TRP A   1      -4.142  13.386  11.228  0.00  0.00    +0.149 C 
BRANCH  10  11
ATOM     11  N   TRP A   1      -4.432  12.198  12.042  0.00  0.00    -0.238 NA
ATOM     12  H   TRP A   1      -3.959  11.296  11.833  0.00  0.00    +0.142 HD
ENDBRANCH  10  11
BRANCH  10  13
ATOM     13  CB  TRP A   1      -3.165  14.351  11.940  0.00  0.00    +0.054 C 
BRANCH  13  14
ATOM     14  CG  TRP A   1      -1.796  13.759  12.190  0.00  0.00    -0.002 A 
ATOM     15  CD2 TRP A   1      -1.440  12.789  13.194  0.00  0.00    +0.013 A 
ATOM     16  CE3 TRP A   1      -2.153  12.116  14.199  0.00  0.00    +0.001 A 
ATOM     17  CZ3 TRP A   1      -1.475  11.214  15.027  0.00  0.00    +0.000 A 
ATOM     18  CH2 TRP A   1      -0.080  10.969  14.866  0.00  0.00    +0.001 A 
ATOM     19  CZ2 TRP A   1       0.648  11.636  13.907  0.00  0.00    +0.017 A 
ATOM     20  CE2 TRP A   1      -0.037  12.564  13.083  0.00  0.00    +0.056 A 
ATOM     21  NE1 TRP A   1       0.420  13.339  12.042  0.00  0.00    -0.352 N 
ATOM     22  HE1 TRP A   1       1.402  13.375  11.701  0.00  0.00    +0.166 HD
ATOM     23  CD1 TRP A   1      -0.642  14.064  11.521  0.00  0.00    +0.068 A 
ENDBRANCH  13  14
ENDBRANCH  10  13
ENDBRANCH   6  10
ENDBRANCH   5   8
ENDBRANCH   1   5
BRANCH   3  24
ATOM     24  CA  ASN A   3      -5.779  11.521   5.699  0.00  0.00    +0.158 C 
BRANCH  24  25
ATOM     25  C   ASN A   3      -6.096  10.096   6.169  0.00  0.00    +0.241 C 
ATOM     26  N   ASN A   4      -5.605   9.705   7.345  0.00  0.00    -0.298 N 
ATOM     27  H   ASN A   4      -5.022  10.353   7.912  0.00  0.00    +0.150 HD
ATOM     28  O   ASN A   3      -6.810   9.374   5.491  0.00  0.00    -0.273 OA
BRANCH  26  29
ATOM     29  CA  ASN A   4      -5.895   8.348   7.834  0.00  0.00    +0.146 C 
BRANCH  29  30
ATOM     30  C   ASN A   4      -7.334   8.235   8.249  0.00  0.00    +0.227 C 
ATOM     31  O   ASN A   4      -7.914   9.208   8.733  0.00  0.00    -0.286 OA
ENDBRANCH  29  30
BRANCH  29  32
ATOM     32  CB  ASN A   4      -5.019   7.975   9.004  0.00  0.00    +0.112 C 
BRANCH  32  33
ATOM     33  CG  ASN A   4      -3.577   7.835   8.623  0.00  0.00    +0.222 C 
ATOM     34  ND2 ASN A   4      -3.102   6.584   8.506  0.00  0.00    -0.329 N 
ATOM     35 HD21 ASN A   4      -3.738   5.772   8.638  0.00  0.00    +0.145 HD
ATOM     36 HD22 ASN A   4      -2.098   6.428   8.283  0.00  0.00    +0.145 HD
ATOM     37  OD1 ASN A   4      -2.879   8.833   8.479  0.00  0.00    -0.275 OA
ENDBRANCH  32  33
ENDBRANCH  29  32
ENDBRANCH  26  29
ENDBRANCH  24  25
BRANCH  24  38
ATOM     38  CB  ASN A   3      -5.774  11.598   4.162  0.00  0.00    +0.114 C 
BRANCH  38  39
ATOM     39  CG  ASN A   3      -5.742  13.035   3.649  0.00  0.00    +0.222 C 
ATOM     40  OD1 ASN A   3      -6.371  13.944   4.225  0.00  0.00    -0.275 OA
ATOM     41  ND2 ASN A   3      -5.008  13.253   2.565  0.00  0.00    -0.329 N 
ATOM     42 HD21 ASN A   3      -4.942  14.211   2.166  0.00  0.00    +0.145 HD
ATOM     43 HD22 ASN A   3      -4.499  12.466   2.115  0.00  0.00    +0.145 HD
ENDBRANCH  38  39
ENDBRANCH  24  38
ENDBRANCH   3  24
TORSDOF 14
REMARK  Name = ../refined-set-2016/2vmd/2vmd_pocket.pdb
REMARK  92 active torsions:
REMARK  status: ('A' for Active; 'I' for Inactive)
REMARK    1  A    between atoms: _1  and  _3
REMARK    2  A    between atoms: _3  and  _4
REMARK    3  A    between atoms: _6  and  _8
REMARK    4  A    between atoms: _8  and  _9
REMARK    5  A    between atoms: _8  and  _11
REMARK    6  A    between atoms: _11  and  _12
REMARK    7  A    between atoms: _14  and  _16
REMARK    8  A    between atoms: _16  and  _17
REMARK    9  A    between atoms: _16  and  _19
REMARK   10  A    between atoms: _19  and  _20
REMARK   11  A    between atoms: _23  and  _25
REMARK   12  A    between atoms: _25  and  _26
REMARK   13  A    between atoms: _25  and  _28
REMARK   14  A    between atoms: _28  and  _29
REMARK   15  A    between atoms: _34  and  _36
REMARK   16  A    between atoms: _36  and  _37
REMARK   17  A    between atoms: _36  and  _39
REMARK   18  A    between atoms: _39  and  _40
REMARK   19  A    between atoms: _40  and  _41
REMARK   20  A    between atoms: _46  and  _48
REMARK   21  A    between atoms: _48  and  _49
REMARK   22  A    between atoms: _48  and  _51
REMARK   23  A    between atoms: _51  and  _52
REMARK   24  A    between atoms: _52  and  _53
REMARK   25  A    between atoms: _55  and  _57
REMARK   26  A    between atoms: _57  and  _58
REMARK   27  A    between atoms: _57  and  _60
REMARK   28  A    between atoms: _60  and  _61
REMARK   29  A    between atoms: _61  and  _62
REMARK   30  A    between atoms: _62  and  _63
REMARK   31  A    between atoms: _72  and  _74
REMARK   32  A    between atoms: _74  and  _75
REMARK   33  A    between atoms: _74  and  _77
REMARK   34  A    between atoms: _77  and  _78
REMARK   35  A    between atoms: _88  and  _90
REMARK   36  A    between atoms: _90  and  _91
REMARK   37  A    between atoms: _90  and  _93
REMARK   38  A    between atoms: _93  and  _94
REMARK   39  A    between atoms: _104  and  _106
REMARK   40  A    between atoms: _106  and  _107
REMARK   41  A    between atoms: _109  and  _111
REMARK   42  A    between atoms: _111  and  _112
REMARK   43  A    between atoms: _111  and  _114
REMARK   44  A    between atoms: _114  and  _115
REMARK   45  A    between atoms: _120  and  _122
REMARK   46  A    between atoms: _122  and  _123
REMARK   47  A    between atoms: _122  and  _125
REMARK   48  A    between atoms: _125  and  _126
REMARK   49  A    between atoms: _131  and  _133
REMARK   50  A    between atoms: _133  and  _134
REMARK   51  A    between atoms: _133  and  _136
REMARK   52  A    between atoms: _136  and  _137
REMARK   53  A    between atoms: _137  and  _138
REMARK   54  A    between atoms: _138  and  _139
REMARK   55  A    between atoms: _148  and  _150
REMARK   56  A    between atoms: _150  and  _151
REMARK   57  A    between atoms: _150  and  _153
REMARK   58  A    between atoms: _153  and  _154
REMARK   59  A    between atoms: _159  and  _161
REMARK   60  A    between atoms: _161  and  _162
REMARK   61  A    between atoms: _161  and  _164
REMARK   62  A    between atoms: _164  and  _165
REMARK   63  A    between atoms: _165  and  _166
REMARK   64  A    between atoms: _166  and  _167
REMARK   65  A    between atoms: _167  and  _168
REMARK   66  A    between atoms: _172  and  _174
REMARK   67  A    between atoms: _174  and  _175
REMARK   68  A    between atoms: _174  and  _177
REMARK   69  A    between atoms: _180  and  _182
REMARK   70  A    between atoms: _182  and  _183
REMARK   71  A    between atoms: _182  and  _185
REMARK   72  A    between atoms: _185  and  _186
REMARK   73  A    between atoms: _189  and  _191
REMARK   74  A    between atoms: _191  and  _192
REMARK   75  A    between atoms: _195  and  _197
REMARK   76  A    between atoms: _197  and  _198
REMARK   77  A    between atoms: _197  and  _200
REMARK   78  A    between atoms: _200  and  _201
REMARK   79  A    between atoms: _206  and  _208
REMARK   80  A    between atoms: _208  and  _209
REMARK   81  A    between atoms: _212  and  _214
REMARK   82  A    between atoms: _214  and  _215
REMARK   83  A    between atoms: _214  and  _217
REMARK   84  A    between atoms: _220  and  _222
REMARK   85  A    between atoms: _222  and  _223
REMARK   86  A    between atoms: _222  and  _225
REMARK   87  A    between atoms: _225  and  _226
REMARK   88  A    between atoms: _231  and  _232
REMARK   89  A    between atoms: _234  and  _236
REMARK   90  A    between atoms: _236  and  _237
REMARK   91  A    between atoms: _236  and  _239
REMARK   92  A    between atoms: _239  and  _240
REMARK                            x       y       z     vdW  Elec       q    Type
REMARK                         _______ _______ _______ _____ _____    ______ ____
ROOT
ATOM      1  NE  ARG A   1      10.272  12.920  12.806  0.00  0.00    -0.265 N 
ATOM      2  CZ  ARG A   1       9.829  13.726  13.770  0.00  0.00    +0.342 C 
ATOM      3  NH2 ARG A   1       9.348  13.206  14.896  0.00  0.00    -0.292 N 
ATOM      4 HH21 ARG A   1       9.001  13.831  15.651  0.00  0.00    +0.255 HD
ATOM      5 HH22 ARG A   1       9.319  12.174  15.021  0.00  0.00    +0.255 HD
ATOM      6  NH1 ARG A   1       9.878  15.054  13.618  0.00  0.00    -0.292 N 
ATOM      7 HH11 ARG A   1       9.530  15.677  14.375  0.00  0.00    +0.255 HD
ATOM      8 HH12 ARG A   1      10.264  15.463  12.743  0.00  0.00    +0.255 HD
ATOM      9  HE  ARG A   1      10.235  11.896  12.983  0.00  0.00    +0.259 HD
ENDROOT
BRANCH   1  10
ATOM     10  CD  ARG A   1      10.812  13.367  11.506  0.00  0.00    +0.174 C 
BRANCH  10  11
ATOM     11  CG  ARG A   1      12.292  13.771  11.544  0.00  0.00    +0.045 C 
BRANCH  11  12
ATOM     12  CB  ARG A   1      13.240  12.583  11.576  0.00  0.00    +0.029 C 
BRANCH  12  13
ATOM     13  CA  ARG A   1      13.278  11.812  12.903  0.00  0.00    +0.133 C 
BRANCH  13  14
ATOM     14  N   ARG A   1      13.358  12.702  14.076  0.00  0.00    -0.239 NA
ATOM     15  H   ARG A   1      13.975  13.539  14.053  0.00  0.00    +0.142 HD
ENDBRANCH  13  14
BRANCH  13  16
ATOM     16  C   ARG A   1      14.350  10.739  12.840  0.00  0.00    +0.224 C 
ATOM     17  O   ARG A   1      14.673  10.278  11.742  0.00  0.00    -0.287 OA
ENDBRANCH  13  16
ENDBRANCH  12  13
ENDBRANCH  11  12
ENDBRANCH  10  11
ENDBRANCH   1  10
TORSDOF 6
REMARK  Name = ../refined-set-2016/2vmd/2vmd_pocket.pdb
REMARK  92 active torsions:
REMARK  status: ('A' for Active; 'I' for Inactive)
REMARK    1  A    between atoms: _1  and  _3
REMARK    2  A    between atoms: _3  and  _4
REMARK    3  A    between atoms: _6  and  _8
REMARK    4  A    between atoms: _8  and  _9
REMARK    5  A    between atoms: _8  and  _11
REMARK    6  A    between atoms: _11  and  _12
REMARK    7  A    between atoms: _14  and  _16
REMARK    8  A    between atoms: _16  and  _17
REMARK    9  A    between atoms: _16  and  _19
REMARK   10  A    between atoms: _19  and  _20
REMARK   11  A    between atoms: _23  and  _25
REMARK   12  A    between atoms: _25  and  _26
REMARK   13  A    between atoms: _25  and  _28
REMARK   14  A    between atoms: _28  and  _29
REMARK   15  A    between atoms: _34  and  _36
REMARK   16  A    between atoms: _36  and  _37
REMARK   17  A    between atoms: _36  and  _39
REMARK   18  A    between atoms: _39  and  _40
REMARK   19  A    between atoms: _40  and  _41
REMARK   20  A    between atoms: _46  and  _48
REMARK   21  A    between atoms: _48  and  _49
REMARK   22  A    between atoms: _48  and  _51
REMARK   23  A    between atoms: _51  and  _52
REMARK   24  A    between atoms: _52  and  _53
REMARK   25  A    between atoms: _55  and  _57
REMARK   26  A    between atoms: _57  and  _58
REMARK   27  A    between atoms: _57  and  _60
REMARK   28  A    between atoms: _60  and  _61
REMARK   29  A    between atoms: _61  and  _62
REMARK   30  A    between atoms: _62  and  _63
REMARK   31  A    between atoms: _72  and  _74
REMARK   32  A    between atoms: _74  and  _75
REMARK   33  A    between atoms: _74  and  _77
REMARK   34  A    between atoms: _77  and  _78
REMARK   35  A    between atoms: _88  and  _90
REMARK   36  A    between atoms: _90  and  _91
REMARK   37  A    between atoms: _90  and  _93
REMARK   38  A    between atoms: _93  and  _94
REMARK   39  A    between atoms: _104  and  _106
REMARK   40  A    between atoms: _106  and  _107
REMARK   41  A    between atoms: _109  and  _111
REMARK   42  A    between atoms: _111  and  _112
REMARK   43  A    between atoms: _111  and  _114
REMARK   44  A    between atoms: _114  and  _115
REMARK   45  A    between atoms: _120  and  _122
REMARK   46  A    between atoms: _122  and  _123
REMARK   47  A    between atoms: _122  and  _125
REMARK   48  A    between atoms: _125  and  _126
REMARK   49  A    between atoms: _131  and  _133
REMARK   50  A    between atoms: _133  and  _134
REMARK   51  A    between atoms: _133  and  _136
REMARK   52  A    between atoms: _136  and  _137
REMARK   53  A    between atoms: _137  and  _138
REMARK   54  A    between atoms: _138  and  _139
REMARK   55  A    between atoms: _148  and  _150
REMARK   56  A    between atoms: _150  and  _151
REMARK   57  A    between atoms: _150  and  _153
REMARK   58  A    between atoms: _153  and  _154
REMARK   59  A    between atoms: _159  and  _161
REMARK   60  A    between atoms: _161  and  _162
REMARK   61  A    between atoms: _161  and  _164
REMARK   62  A    between atoms: _164  and  _165
REMARK   63  A    between atoms: _165  and  _166
REMARK   64  A    between atoms: _166  and  _167
REMARK   65  A    between atoms: _167  and  _168
REMARK   66  A    between atoms: _172  and  _174
REMARK   67  A    between atoms: _174  and  _175
REMARK   68  A    between atoms: _174  and  _177
REMARK   69  A    between atoms: _180  and  _182
REMARK   70  A    between atoms: _182  and  _183
REMARK   71  A    between atoms: _182  and  _185
REMARK   72  A    between atoms: _185  and  _186
REMARK   73  A    between atoms: _189  and  _191
REMARK   74  A    between atoms: _191  and  _192
REMARK   75  A    between atoms: _195  and  _197
REMARK   76  A    between atoms: _197  and  _198
REMARK   77  A    between atoms: _197  and  _200
REMARK   78  A    between atoms: _200  and  _201
REMARK   79  A    between atoms: _206  and  _208
REMARK   80  A    between atoms: _208  and  _209
REMARK   81  A    between atoms: _212  and  _214
REMARK   82  A    between atoms: _214  and  _215
REMARK   83  A    between atoms: _214  and  _217
REMARK   84  A    between atoms: _220  and  _222
REMARK   85  A    between atoms: _222  and  _223
REMARK   86  A    between atoms: _222  and  _225
REMARK   87  A    between atoms: _225  and  _226
REMARK   88  A    between atoms: _231  and  _232
REMARK   89  A    between atoms: _234  and  _236
REMARK   90  A    between atoms: _236  and  _237
REMARK   91  A    between atoms: _236  and  _239
REMARK   92  A    between atoms: _239  and  _240
REMARK                            x       y       z     vdW  Elec       q    Type
REMARK                         _______ _______ _______ _____ _____    ______ ____
ROOT
ATOM      1  CB  ASN A   1      12.020   9.397   9.963  0.00  0.00    +0.110 C 
ENDROOT
BRANCH   1   2
ATOM      2  CG  ASN A   1      10.784   9.622   9.119  0.00  0.00    +0.221 C 
ATOM      3  OD1 ASN A   1       9.824   8.850   9.171  0.00  0.00    -0.275 OA
ATOM      4  ND2 ASN A   1      10.795  10.705   8.341  0.00  0.00    -0.329 N 
ATOM      5 HD21 ASN A   1      11.627  11.328   8.329  0.00  0.00    +0.145 HD
ATOM      6 HD22 ASN A   1       9.971  10.926   7.746  0.00  0.00    +0.145 HD
ENDBRANCH   1   2
BRANCH   1   7
ATOM      7  CA  ASN A   1      12.482   7.950   9.941  0.00  0.00    +0.142 C 
BRANCH   7   8
ATOM      8  N   ASN A   1      13.310   7.654  11.109  0.00  0.00    -0.239 NA
ATOM      9  H   ASN A   1      13.882   8.410  11.537  0.00  0.00    +0.142 HD
ENDBRANCH   7   8
BRANCH   7  10
ATOM     10  C   ASN A   1      13.086   7.618   8.556  0.00  0.00    +0.225 C 
ATOM     11  O   ASN A   1      12.559   8.059   7.542  0.00  0.00    -0.287 OA
ENDBRANCH   7  10
ENDBRANCH   1   7
TORSDOF 4
REMARK  Name = ../refined-set-2016/2vmd/2vmd_pocket.pdb
REMARK  92 active torsions:
REMARK  status: ('A' for Active; 'I' for Inactive)
REMARK    1  A    between atoms: _1  and  _3
REMARK    2  A    between atoms: _3  and  _4
REMARK    3  A    between atoms: _6  and  _8
REMARK    4  A    between atoms: _8  and  _9
REMARK    5  A    between atoms: _8  and  _11
REMARK    6  A    between atoms: _11  and  _12
REMARK    7  A    between atoms: _14  and  _16
REMARK    8  A    between atoms: _16  and  _17
REMARK    9  A    between atoms: _16  and  _19
REMARK   10  A    between atoms: _19  and  _20
REMARK   11  A    between atoms: _23  and  _25
REMARK   12  A    between atoms: _25  and  _26
REMARK   13  A    between atoms: _25  and  _28
REMARK   14  A    between atoms: _28  and  _29
REMARK   15  A    between atoms: _34  and  _36
REMARK   16  A    between atoms: _36  and  _37
REMARK   17  A    between atoms: _36  and  _39
REMARK   18  A    between atoms: _39  and  _40
REMARK   19  A    between atoms: _40  and  _41
REMARK   20  A    between atoms: _46  and  _48
REMARK   21  A    between atoms: _48  and  _49
REMARK   22  A    between atoms: _48  and  _51
REMARK   23  A    between atoms: _51  and  _52
REMARK   24  A    between atoms: _52  and  _53
REMARK   25  A    between atoms: _55  and  _57
REMARK   26  A    between atoms: _57  and  _58
REMARK   27  A    between atoms: _57  and  _60
REMARK   28  A    between atoms: _60  and  _61
REMARK   29  A    between atoms: _61  and  _62
REMARK   30  A    between atoms: _62  and  _63
REMARK   31  A    between atoms: _72  and  _74
REMARK   32  A    between atoms: _74  and  _75
REMARK   33  A    between atoms: _74  and  _77
REMARK   34  A    between atoms: _77  and  _78
REMARK   35  A    between atoms: _88  and  _90
REMARK   36  A    between atoms: _90  and  _91
REMARK   37  A    between atoms: _90  and  _93
REMARK   38  A    between atoms: _93  and  _94
REMARK   39  A    between atoms: _104  and  _106
REMARK   40  A    between atoms: _106  and  _107
REMARK   41  A    between atoms: _109  and  _111
REMARK   42  A    between atoms: _111  and  _112
REMARK   43  A    between atoms: _111  and  _114
REMARK   44  A    between atoms: _114  and  _115
REMARK   45  A    between atoms: _120  and  _122
REMARK   46  A    between atoms: _122  and  _123
REMARK   47  A    between atoms: _122  and  _125
REMARK   48  A    between atoms: _125  and  _126
REMARK   49  A    between atoms: _131  and  _133
REMARK   50  A    between atoms: _133  and  _134
REMARK   51  A    between atoms: _133  and  _136
REMARK   52  A    between atoms: _136  and  _137
REMARK   53  A    between atoms: _137  and  _138
REMARK   54  A    between atoms: _138  and  _139
REMARK   55  A    between atoms: _148  and  _150
REMARK   56  A    between atoms: _150  and  _151
REMARK   57  A    between atoms: _150  and  _153
REMARK   58  A    between atoms: _153  and  _154
REMARK   59  A    between atoms: _159  and  _161
REMARK   60  A    between atoms: _161  and  _162
REMARK   61  A    between atoms: _161  and  _164
REMARK   62  A    between atoms: _164  and  _165
REMARK   63  A    between atoms: _165  and  _166
REMARK   64  A    between atoms: _166  and  _167
REMARK   65  A    between atoms: _167  and  _168
REMARK   66  A    between atoms: _172  and  _174
REMARK   67  A    between atoms: _174  and  _175
REMARK   68  A    between atoms: _174  and  _177
REMARK   69  A    between atoms: _180  and  _182
REMARK   70  A    between atoms: _182  and  _183
REMARK   71  A    between atoms: _182  and  _185
REMARK   72  A    between atoms: _185  and  _186
REMARK   73  A    between atoms: _189  and  _191
REMARK   74  A    between atoms: _191  and  _192
REMARK   75  A    between atoms: _195  and  _197
REMARK   76  A    between atoms: _197  and  _198
REMARK   77  A    between atoms: _197  and  _200
REMARK   78  A    between atoms: _200  and  _201
REMARK   79  A    between atoms: _206  and  _208
REMARK   80  A    between atoms: _208  and  _209
REMARK   81  A    between atoms: _212  and  _214
REMARK   82  A    between atoms: _214  and  _215
REMARK   83  A    between atoms: _214  and  _217
REMARK   84  A    between atoms: _220  and  _222
REMARK   85  A    between atoms: _222  and  _223
REMARK   86  A    between atoms: _222  and  _225
REMARK   87  A    between atoms: _225  and  _226
REMARK   88  A    between atoms: _231  and  _232
REMARK   89  A    between atoms: _234  and  _236
REMARK   90  A    between atoms: _236  and  _237
REMARK   91  A    between atoms: _236  and  _239
REMARK   92  A    between atoms: _239  and  _240
REMARK                            x       y       z     vdW  Elec       q    Type
REMARK                         _______ _______ _______ _____ _____    ______ ____
ROOT
ATOM      1  CA  ASP A   3       3.426   7.755  13.316  0.00  0.00    +0.160 C 
ENDROOT
BRANCH   1   4
ATOM      2  C   VAL A   2       2.103   6.535  15.016  0.00  0.00    +0.241 C 
ATOM      3  O   VAL A   2       0.989   6.922  14.605  0.00  0.00    -0.273 OA
ATOM      4  N   ASP A   3       3.275   6.958  14.542  0.00  0.00    -0.297 N 
ATOM      5  H   ASP A   3       4.135   6.709  15.072  0.00  0.00    +0.150 HD
BRANCH   2   6
ATOM      6  CA  VAL A   2       2.204   5.543  16.179  0.00  0.00    +0.148 C 
BRANCH   6   9
ATOM      7  C   LYS A   1       1.988   6.261  18.523  0.00  0.00    +0.238 C 
ATOM      8  O   LYS A   1       3.142   5.918  18.853  0.00  0.00    -0.274 OA
ATOM      9  N   VAL A   2       1.455   6.056  17.315  0.00  0.00    -0.297 N 
ATOM     10  H   VAL A   2       0.448   6.276  17.180  0.00  0.00    +0.150 HD
BRANCH   7  11
ATOM     11  CA  LYS A   1       1.114   7.006  19.503  0.00  0.00    +0.145 C 
BRANCH  11  12
ATOM     12  N   LYS A   1       1.006   6.307  20.797  0.00  0.00    -0.238 NA
ATOM     13  H   LYS A   1       1.773   5.665  21.081  0.00  0.00    +0.142 HD
ENDBRANCH  11  12
BRANCH  11  14
ATOM     14  CB  LYS A   1       1.708   8.400  19.668  0.00  0.00    +0.026 C 
BRANCH  14  15
ATOM     15  CG  LYS A   1       1.962   9.104  18.348  0.00  0.00    -0.000 C 
BRANCH  15  16
ATOM     16  CD  LYS A   1       2.883  10.318  18.529  0.00  0.00    -0.024 C 
BRANCH  16  17
ATOM     17  CE  LYS A   1       2.826  11.171  17.331  0.00  0.00    -0.086 C 
BRANCH  17  18
ATOM     18  NZ  LYS A   1       3.601  12.452  17.556  0.00  0.00    +0.380 N 
ATOM     19  HZ1 LYS A   1       3.189  12.968  18.359  0.00  0.00    -0.089 HD
ATOM     20  HZ2 LYS A   1       4.594  12.223  17.762  0.00  0.00    -0.089 HD
ATOM     21  HZ3 LYS A   1       3.550  13.041  16.701  0.00  0.00    -0.089 HD
ENDBRANCH  17  18
ENDBRANCH  16  17
ENDBRANCH  15  16
ENDBRANCH  14  15
ENDBRANCH  11  14
ENDBRANCH   7  11
ENDBRANCH   6   9
BRANCH   6  22
ATOM     22  CB  VAL A   2       1.689   4.139  15.740  0.00  0.00    +0.027 C 
ATOM     23  CG2 VAL A   2       2.034   3.121  16.794  0.00  0.00    +0.002 C 
ATOM     24  CG1 VAL A   2       2.277   3.724  14.361  0.00  0.00    +0.002 C 
ENDBRANCH   6  22
ENDBRANCH   2   6
ENDBRANCH   1   4
BRANCH   1  25
ATOM     25  C   ASP A   3       4.542   7.087  12.516  0.00  0.00    +0.241 C 
ATOM     26  O   ASP A   3       5.742   7.388  12.701  0.00  0.00    -0.273 OA
ATOM     27  N   ALA A   4       4.149   6.162  11.652  0.00  0.00    -0.297 N 
ATOM     28  H   ALA A   4       3.137   6.057  11.438  0.00  0.00    +0.150 HD
BRANCH  27  29
ATOM     29  CA  ALA A   4       5.122   5.286  10.994  0.00  0.00    +0.149 C 
ATOM     30  CB  ALA A   4       5.371   4.043  11.845  0.00  0.00    +0.031 C 
BRANCH  29  31
ATOM     31  C   ALA A   4       4.661   4.892   9.590  0.00  0.00    +0.241 C 
ATOM     32  O   ALA A   4       3.455   4.776   9.315  0.00  0.00    -0.273 OA
ATOM     33  N   HIS A   5       5.628   4.621   8.731  0.00  0.00    -0.298 N 
ATOM     34  H   HIS A   5       6.617   4.738   9.030  0.00  0.00    +0.150 HD
BRANCH  33  35
ATOM     35  CA  HIS A   5       5.345   4.163   7.376  0.00  0.00    +0.143 C 
BRANCH  35  36
ATOM     36  C   HIS A   5       5.560   2.655   7.265  0.00  0.00    +0.227 C 
ATOM     37  O   HIS A   5       6.550   2.114   7.778  0.00  0.00    -0.286 OA
ENDBRANCH  35  36
BRANCH  35  38
ATOM     38  CB  HIS A   5       6.255   4.891   6.382  0.00  0.00    +0.075 C 
BRANCH  38  39
ATOM     39  CG  HIS A   5       5.695   4.970   4.993  0.00  0.00    +0.082 A 
ATOM     40  ND1 HIS A   5       4.814   5.960   4.602  0.00  0.00    -0.227 NA
ATOM     41  CE1 HIS A   5       4.486   5.779   3.332  0.00  0.00    +0.199 A 
ATOM     42  NE2 HIS A   5       5.106   4.703   2.891  0.00  0.00    -0.221 NA
ATOM     43  CD2 HIS A   5       5.872   4.179   3.909  0.00  0.00    +0.115 A 
ENDBRANCH  38  39
ENDBRANCH  35  38
ENDBRANCH  33  35
ENDBRANCH  29  31
ENDBRANCH  27  29
ENDBRANCH   1  25
BRANCH   1  44
ATOM     44  CB  ASP A   3       3.791   9.186  13.677  0.00  0.00    +0.143 C 
BRANCH  44  45
ATOM     45  CG  ASP A   3       3.718  10.136  12.507  0.00  0.00    +0.367 C 
ATOM     46  OD2 ASP A   3       3.908  11.368  12.754  0.00  0.00    -0.246 OA
ATOM     47  OD1 ASP A   3       3.510   9.683  11.353  0.00  0.00    -0.246 OA
ENDBRANCH  44  45
ENDBRANCH   1  44
TORSDOF 20
REMARK  Name = ../refined-set-2016/2vmd/2vmd_pocket.pdb
REMARK  92 active torsions:
REMARK  status: ('A' for Active; 'I' for Inactive)
REMARK    1  A    between atoms: _1  and  _3
REMARK    2  A    between atoms: _3  and  _4
REMARK    3  A    between atoms: _6  and  _8
REMARK    4  A    between atoms: _8  and  _9
REMARK    5  A    between atoms: _8  and  _11
REMARK    6  A    between atoms: _11  and  _12
REMARK    7  A    between atoms: _14  and  _16
REMARK    8  A    between atoms: _16  and  _17
REMARK    9  A    between atoms: _16  and  _19
REMARK   10  A    between atoms: _19  and  _20
REMARK   11  A    between atoms: _23  and  _25
REMARK   12  A    between atoms: _25  and  _26
REMARK   13  A    between atoms: _25  and  _28
REMARK   14  A    between atoms: _28  and  _29
REMARK   15  A    between atoms: _34  and  _36
REMARK   16  A    between atoms: _36  and  _37
REMARK   17  A    between atoms: _36  and  _39
REMARK   18  A    between atoms: _39  and  _40
REMARK   19  A    between atoms: _40  and  _41
REMARK   20  A    between atoms: _46  and  _48
REMARK   21  A    between atoms: _48  and  _49
REMARK   22  A    between atoms: _48  and  _51
REMARK   23  A    between atoms: _51  and  _52
REMARK   24  A    between atoms: _52  and  _53
REMARK   25  A    between atoms: _55  and  _57
REMARK   26  A    between atoms: _57  and  _58
REMARK   27  A    between atoms: _57  and  _60
REMARK   28  A    between atoms: _60  and  _61
REMARK   29  A    between atoms: _61  and  _62
REMARK   30  A    between atoms: _62  and  _63
REMARK   31  A    between atoms: _72  and  _74
REMARK   32  A    between atoms: _74  and  _75
REMARK   33  A    between atoms: _74  and  _77
REMARK   34  A    between atoms: _77  and  _78
REMARK   35  A    between atoms: _88  and  _90
REMARK   36  A    between atoms: _90  and  _91
REMARK   37  A    between atoms: _90  and  _93
REMARK   38  A    between atoms: _93  and  _94
REMARK   39  A    between atoms: _104  and  _106
REMARK   40  A    between atoms: _106  and  _107
REMARK   41  A    between atoms: _109  and  _111
REMARK   42  A    between atoms: _111  and  _112
REMARK   43  A    between atoms: _111  and  _114
REMARK   44  A    between atoms: _114  and  _115
REMARK   45  A    between atoms: _120  and  _122
REMARK   46  A    between atoms: _122  and  _123
REMARK   47  A    between atoms: _122  and  _125
REMARK   48  A    between atoms: _125  and  _126
REMARK   49  A    between atoms: _131  and  _133
REMARK   50  A    between atoms: _133  and  _134
REMARK   51  A    between atoms: _133  and  _136
REMARK   52  A    between atoms: _136  and  _137
REMARK   53  A    between atoms: _137  and  _138
REMARK   54  A    between atoms: _138  and  _139
REMARK   55  A    between atoms: _148  and  _150
REMARK   56  A    between atoms: _150  and  _151
REMARK   57  A    between atoms: _150  and  _153
REMARK   58  A    between atoms: _153  and  _154
REMARK   59  A    between atoms: _159  and  _161
REMARK   60  A    between atoms: _161  and  _162
REMARK   61  A    between atoms: _161  and  _164
REMARK   62  A    between atoms: _164  and  _165
REMARK   63  A    between atoms: _165  and  _166
REMARK   64  A    between atoms: _166  and  _167
REMARK   65  A    between atoms: _167  and  _168
REMARK   66  A    between atoms: _172  and  _174
REMARK   67  A    between atoms: _174  and  _175
REMARK   68  A    between atoms: _174  and  _177
REMARK   69  A    between atoms: _180  and  _182
REMARK   70  A    between atoms: _182  and  _183
REMARK   71  A    between atoms: _182  and  _185
REMARK   72  A    between atoms: _185  and  _186
REMARK   73  A    between atoms: _189  and  _191
REMARK   74  A    between atoms: _191  and  _192
REMARK   75  A    between atoms: _195  and  _197
REMARK   76  A    between atoms: _197  and  _198
REMARK   77  A    between atoms: _197  and  _200
REMARK   78  A    between atoms: _200  and  _201
REMARK   79  A    between atoms: _206  and  _208
REMARK   80  A    between atoms: _208  and  _209
REMARK   81  A    between atoms: _212  and  _214
REMARK   82  A    between atoms: _214  and  _215
REMARK   83  A    between atoms: _214  and  _217
REMARK   84  A    between atoms: _220  and  _222
REMARK   85  A    between atoms: _222  and  _223
REMARK   86  A    between atoms: _222  and  _225
REMARK   87  A    between atoms: _225  and  _226
REMARK   88  A    between atoms: _231  and  _232
REMARK   89  A    between atoms: _234  and  _236
REMARK   90  A    between atoms: _236  and  _237
REMARK   91  A    between atoms: _236  and  _239
REMARK   92  A    between atoms: _239  and  _240
REMARK                            x       y       z     vdW  Elec       q    Type
REMARK                         _______ _______ _______ _____ _____    ______ ____
ROOT
ATOM      1  CA  TYR A   3       8.344   9.262  12.257  0.00  0.00    +0.153 C 
ENDROOT
BRANCH   1   4
ATOM      2  C   VAL A   2       9.392   7.003  12.200  0.00  0.00    +0.241 C 
ATOM      3  O   VAL A   2      10.529   7.379  12.494  0.00  0.00    -0.273 OA
ATOM      4  N   TYR A   3       8.330   7.804  12.078  0.00  0.00    -0.297 N 
ATOM      5  H   TYR A   3       7.421   7.360  11.837  0.00  0.00    +0.150 HD
BRANCH   2   6
ATOM      6  CA  VAL A   2       9.134   5.529  11.947  0.00  0.00    +0.148 C 
BRANCH   6   8
ATOM      7  C   ALA A   1       9.422   5.033   9.572  0.00  0.00    +0.238 C 
ATOM      8  N   VAL A   2       9.950   5.171  10.781  0.00  0.00    -0.297 N 
ATOM      9  H   VAL A   2      10.972   5.021  10.906  0.00  0.00    +0.150 HD
ATOM     10  O   ALA A   1       8.222   5.138   9.350  0.00  0.00    -0.274 OA
BRANCH   7  11
ATOM     11  CA  ALA A   1      10.383   4.661   8.452  0.00  0.00    +0.145 C 
ATOM     12  CB  ALA A   1      10.238   5.604   7.271  0.00  0.00    +0.028 C 
BRANCH  11  13
ATOM     13  N   ALA A   1      10.041   3.306   8.044  0.00  0.00    -0.238 NA
ATOM     14  H   ALA A   1       9.134   3.166   7.555  0.00  0.00    +0.142 HD
ENDBRANCH  11  13
ENDBRANCH   7  11
ENDBRANCH   6   8
BRANCH   6  15
ATOM     15  CB  VAL A   2       9.515   4.688  13.177  0.00  0.00    +0.027 C 
ATOM     16  CG2 VAL A   2       8.746   5.182  14.432  0.00  0.00    +0.002 C 
ATOM     17  CG1 VAL A   2       9.309   3.177  12.919  0.00  0.00    +0.002 C 
ENDBRANCH   6  15
ENDBRANCH   2   6
ENDBRANCH   1   4
BRANCH   1  18
ATOM     18  C   TYR A   3       8.307   9.644  13.741  0.00  0.00    +0.241 C 
ATOM     19  N   ASP A   4       7.440   8.982  14.508  0.00  0.00    -0.298 N 
ATOM     20  H   ASP A   4       6.745   8.352  14.060  0.00  0.00    +0.150 HD
ATOM     21  O   TYR A   3       9.115  10.489  14.188  0.00  0.00    -0.273 OA
BRANCH  19  22
ATOM     22  CA  ASP A   4       7.442   9.121  15.974  0.00  0.00    +0.148 C 
BRANCH  22  23
ATOM     23  C   ASP A   4       6.718   7.948  16.595  0.00  0.00    +0.227 C 
ATOM     24  O   ASP A   4       5.830   7.367  15.962  0.00  0.00    -0.286 OA
ENDBRANCH  22  23
BRANCH  22  25
ATOM     25  CB  ASP A   4       6.729  10.422  16.375  0.00  0.00    +0.142 C 
BRANCH  25  26
ATOM     26  CG  ASP A   4       7.152  10.961  17.771  0.00  0.00    +0.367 C 
ATOM     27  OD2 ASP A   4       8.157  10.499  18.368  0.00  0.00    -0.246 OA
ATOM     28  OD1 ASP A   4       6.473  11.897  18.253  0.00  0.00    -0.246 OA
ENDBRANCH  25  26
ENDBRANCH  22  25
ENDBRANCH  19  22
ENDBRANCH   1  18
BRANCH   1  29
ATOM     29  CB  TYR A   3       7.190   9.900  11.494  0.00  0.00    +0.055 C 
BRANCH  29  30
ATOM     30  CG  TYR A   3       7.234  11.409  11.306  0.00  0.00    -0.020 A 
ATOM     31  CD2 TYR A   3       6.819  12.275  12.327  0.00  0.00    -0.001 A 
ATOM     32  CE2 TYR A   3       6.830  13.648  12.153  0.00  0.00    +0.036 A 
ATOM     33  CZ  TYR A   3       7.269  14.180  10.950  0.00  0.00    +0.134 A 
ATOM     34  CE1 TYR A   3       7.689  13.349   9.915  0.00  0.00    +0.036 A 
ATOM     35  CD1 TYR A   3       7.654  11.963  10.093  0.00  0.00    -0.001 A 
BRANCH  33  36
ATOM     36  OH  TYR A   3       7.273  15.563  10.789  0.00  0.00    -0.506 OA
ATOM     37  HH  TYR A   3       7.610  15.788   9.886  0.00  0.00    +0.292 HD
ENDBRANCH  33  36
ENDBRANCH  29  30
ENDBRANCH   1  29
TORSDOF 14
REMARK  Name = ../refined-set-2016/2vmd/2vmd_pocket.pdb
REMARK  92 active torsions:
REMARK  status: ('A' for Active; 'I' for Inactive)
REMARK    1  A    between atoms: _1  and  _3
REMARK    2  A    between atoms: _3  and  _4
REMARK    3  A    between atoms: _6  and  _8
REMARK    4  A    between atoms: _8  and  _9
REMARK    5  A    between atoms: _8  and  _11
REMARK    6  A    between atoms: _11  and  _12
REMARK    7  A    between atoms: _14  and  _16
REMARK    8  A    between atoms: _16  and  _17
REMARK    9  A    between atoms: _16  and  _19
REMARK   10  A    between atoms: _19  and  _20
REMARK   11  A    between atoms: _23  and  _25
REMARK   12  A    between atoms: _25  and  _26
REMARK   13  A    between atoms: _25  and  _28
REMARK   14  A    between atoms: _28  and  _29
REMARK   15  A    between atoms: _34  and  _36
REMARK   16  A    between atoms: _36  and  _37
REMARK   17  A    between atoms: _36  and  _39
REMARK   18  A    between atoms: _39  and  _40
REMARK   19  A    between atoms: _40  and  _41
REMARK   20  A    between atoms: _46  and  _48
REMARK   21  A    between atoms: _48  and  _49
REMARK   22  A    between atoms: _48  and  _51
REMARK   23  A    between atoms: _51  and  _52
REMARK   24  A    between atoms: _52  and  _53
REMARK   25  A    between atoms: _55  and  _57
REMARK   26  A    between atoms: _57  and  _58
REMARK   27  A    between atoms: _57  and  _60
REMARK   28  A    between atoms: _60  and  _61
REMARK   29  A    between atoms: _61  and  _62
REMARK   30  A    between atoms: _62  and  _63
REMARK   31  A    between atoms: _72  and  _74
REMARK   32  A    between atoms: _74  and  _75
REMARK   33  A    between atoms: _74  and  _77
REMARK   34  A    between atoms: _77  and  _78
REMARK   35  A    between atoms: _88  and  _90
REMARK   36  A    between atoms: _90  and  _91
REMARK   37  A    between atoms: _90  and  _93
REMARK   38  A    between atoms: _93  and  _94
REMARK   39  A    between atoms: _104  and  _106
REMARK   40  A    between atoms: _106  and  _107
REMARK   41  A    between atoms: _109  and  _111
REMARK   42  A    between atoms: _111  and  _112
REMARK   43  A    between atoms: _111  and  _114
REMARK   44  A    between atoms: _114  and  _115
REMARK   45  A    between atoms: _120  and  _122
REMARK   46  A    between atoms: _122  and  _123
REMARK   47  A    between atoms: _122  and  _125
REMARK   48  A    between atoms: _125  and  _126
REMARK   49  A    between atoms: _131  and  _133
REMARK   50  A    between atoms: _133  and  _134
REMARK   51  A    between atoms: _133  and  _136
REMARK   52  A    between atoms: _136  and  _137
REMARK   53  A    between atoms: _137  and  _138
REMARK   54  A    between atoms: _138  and  _139
REMARK   55  A    between atoms: _148  and  _150
REMARK   56  A    between atoms: _150  and  _151
REMARK   57  A    between atoms: _150  and  _153
REMARK   58  A    between atoms: _153  and  _154
REMARK   59  A    between atoms: _159  and  _161
REMARK   60  A    between atoms: _161  and  _162
REMARK   61  A    between atoms: _161  and  _164
REMARK   62  A    between atoms: _164  and  _165
REMARK   63  A    between atoms: _165  and  _166
REMARK   64  A    between atoms: _166  and  _167
REMARK   65  A    between atoms: _167  and  _168
REMARK   66  A    between atoms: _172  and  _174
REMARK   67  A    between atoms: _174  and  _175
REMARK   68  A    between atoms: _174  and  _177
REMARK   69  A    between atoms: _180  and  _182
REMARK   70  A    between atoms: _182  and  _183
REMARK   71  A    between atoms: _182  and  _185
REMARK   72  A    between atoms: _185  and  _186
REMARK   73  A    between atoms: _189  and  _191
REMARK   74  A    between atoms: _191  and  _192
REMARK   75  A    between atoms: _195  and  _197
REMARK   76  A    between atoms: _197  and  _198
REMARK   77  A    between atoms: _197  and  _200
REMARK   78  A    between atoms: _200  and  _201
REMARK   79  A    between atoms: _206  and  _208
REMARK   80  A    between atoms: _208  and  _209
REMARK   81  A    between atoms: _212  and  _214
REMARK   82  A    between atoms: _214  and  _215
REMARK   83  A    between atoms: _214  and  _217
REMARK   84  A    between atoms: _220  and  _222
REMARK   85  A    between atoms: _222  and  _223
REMARK   86  A    between atoms: _222  and  _225
REMARK   87  A    between atoms: _225  and  _226
REMARK   88  A    between atoms: _231  and  _232
REMARK   89  A    between atoms: _234  and  _236
REMARK   90  A    between atoms: _236  and  _237
REMARK   91  A    between atoms: _236  and  _239
REMARK   92  A    between atoms: _239  and  _240
REMARK                            x       y       z     vdW  Elec       q    Type
REMARK                         _______ _______ _______ _____ _____    ______ ____
ROOT
ATOM      1  O   HOH     1       7.791   8.576   5.607  0.00  0.00    +0.000 OA
ENDROOT
TORSDOF 0
REMARK  Name = ../refined-set-2016/2vmd/2vmd_pocket.pdb
REMARK  92 active torsions:
REMARK  status: ('A' for Active; 'I' for Inactive)
REMARK    1  A    between atoms: _1  and  _3
REMARK    2  A    between atoms: _3  and  _4
REMARK    3  A    between atoms: _6  and  _8
REMARK    4  A    between atoms: _8  and  _9
REMARK    5  A    between atoms: _8  and  _11
REMARK    6  A    between atoms: _11  and  _12
REMARK    7  A    between atoms: _14  and  _16
REMARK    8  A    between atoms: _16  and  _17
REMARK    9  A    between atoms: _16  and  _19
REMARK   10  A    between atoms: _19  and  _20
REMARK   11  A    between atoms: _23  and  _25
REMARK   12  A    between atoms: _25  and  _26
REMARK   13  A    between atoms: _25  and  _28
REMARK   14  A    between atoms: _28  and  _29
REMARK   15  A    between atoms: _34  and  _36
REMARK   16  A    between atoms: _36  and  _37
REMARK   17  A    between atoms: _36  and  _39
REMARK   18  A    between atoms: _39  and  _40
REMARK   19  A    between atoms: _40  and  _41
REMARK   20  A    between atoms: _46  and  _48
REMARK   21  A    between atoms: _48  and  _49
REMARK   22  A    between atoms: _48  and  _51
REMARK   23  A    between atoms: _51  and  _52
REMARK   24  A    between atoms: _52  and  _53
REMARK   25  A    between atoms: _55  and  _57
REMARK   26  A    between atoms: _57  and  _58
REMARK   27  A    between atoms: _57  and  _60
REMARK   28  A    between atoms: _60  and  _61
REMARK   29  A    between atoms: _61  and  _62
REMARK   30  A    between atoms: _62  and  _63
REMARK   31  A    between atoms: _72  and  _74
REMARK   32  A    between atoms: _74  and  _75
REMARK   33  A    between atoms: _74  and  _77
REMARK   34  A    between atoms: _77  and  _78
REMARK   35  A    between atoms: _88  and  _90
REMARK   36  A    between atoms: _90  and  _91
REMARK   37  A    between atoms: _90  and  _93
REMARK   38  A    between atoms: _93  and  _94
REMARK   39  A    between atoms: _104  and  _106
REMARK   40  A    between atoms: _106  and  _107
REMARK   41  A    between atoms: _109  and  _111
REMARK   42  A    between atoms: _111  and  _112
REMARK   43  A    between atoms: _111  and  _114
REMARK   44  A    between atoms: _114  and  _115
REMARK   45  A    between atoms: _120  and  _122
REMARK   46  A    between atoms: _122  and  _123
REMARK   47  A    between atoms: _122  and  _125
REMARK   48  A    between atoms: _125  and  _126
REMARK   49  A    between atoms: _131  and  _133
REMARK   50  A    between atoms: _133  and  _134
REMARK   51  A    between atoms: _133  and  _136
REMARK   52  A    between atoms: _136  and  _137
REMARK   53  A    between atoms: _137  and  _138
REMARK   54  A    between atoms: _138  and  _139
REMARK   55  A    between atoms: _148  and  _150
REMARK   56  A    between atoms: _150  and  _151
REMARK   57  A    between atoms: _150  and  _153
REMARK   58  A    between atoms: _153  and  _154
REMARK   59  A    between atoms: _159  and  _161
REMARK   60  A    between atoms: _161  and  _162
REMARK   61  A    between atoms: _161  and  _164
REMARK   62  A    between atoms: _164  and  _165
REMARK   63  A    between atoms: _165  and  _166
REMARK   64  A    between atoms: _166  and  _167
REMARK   65  A    between atoms: _167  and  _168
REMARK   66  A    between atoms: _172  and  _174
REMARK   67  A    between atoms: _174  and  _175
REMARK   68  A    between atoms: _174  and  _177
REMARK   69  A    between atoms: _180  and  _182
REMARK   70  A    between atoms: _182  and  _183
REMARK   71  A    between atoms: _182  and  _185
REMARK   72  A    between atoms: _185  and  _186
REMARK   73  A    between atoms: _189  and  _191
REMARK   74  A    between atoms: _191  and  _192
REMARK   75  A    between atoms: _195  and  _197
REMARK   76  A    between atoms: _197  and  _198
REMARK   77  A    between atoms: _197  and  _200
REMARK   78  A    between atoms: _200  and  _201
REMARK   79  A    between atoms: _206  and  _208
REMARK   80  A    between atoms: _208  and  _209
REMARK   81  A    between atoms: _212  and  _214
REMARK   82  A    between atoms: _214  and  _215
REMARK   83  A    between atoms: _214  and  _217
REMARK   84  A    between atoms: _220  and  _222
REMARK   85  A    between atoms: _222  and  _223
REMARK   86  A    between atoms: _222  and  _225
REMARK   87  A    between atoms: _225  and  _226
REMARK   88  A    between atoms: _231  and  _232
REMARK   89  A    between atoms: _234  and  _236
REMARK   90  A    between atoms: _236  and  _237
REMARK   91  A    between atoms: _236  and  _239
REMARK   92  A    between atoms: _239  and  _240
REMARK                            x       y       z     vdW  Elec       q    Type
REMARK                         _______ _______ _______ _____ _____    ______ ____
ROOT
ATOM      1  O   HOH     1      -0.540  17.522  13.385  0.00  0.00    +0.000 OA
ENDROOT
TORSDOF 0
REMARK  Name = ../refined-set-2016/2vmd/2vmd_pocket.pdb
REMARK  92 active torsions:
REMARK  status: ('A' for Active; 'I' for Inactive)
REMARK    1  A    between atoms: _1  and  _3
REMARK    2  A    between atoms: _3  and  _4
REMARK    3  A    between atoms: _6  and  _8
REMARK    4  A    between atoms: _8  and  _9
REMARK    5  A    between atoms: _8  and  _11
REMARK    6  A    between atoms: _11  and  _12
REMARK    7  A    between atoms: _14  and  _16
REMARK    8  A    between atoms: _16  and  _17
REMARK    9  A    between atoms: _16  and  _19
REMARK   10  A    between atoms: _19  and  _20
REMARK   11  A    between atoms: _23  and  _25
REMARK   12  A    between atoms: _25  and  _26
REMARK   13  A    between atoms: _25  and  _28
REMARK   14  A    between atoms: _28  and  _29
REMARK   15  A    between atoms: _34  and  _36
REMARK   16  A    between atoms: _36  and  _37
REMARK   17  A    between atoms: _36  and  _39
REMARK   18  A    between atoms: _39  and  _40
REMARK   19  A    between atoms: _40  and  _41
REMARK   20  A    between atoms: _46  and  _48
REMARK   21  A    between atoms: _48  and  _49
REMARK   22  A    between atoms: _48  and  _51
REMARK   23  A    between atoms: _51  and  _52
REMARK   24  A    between atoms: _52  and  _53
REMARK   25  A    between atoms: _55  and  _57
REMARK   26  A    between atoms: _57  and  _58
REMARK   27  A    between atoms: _57  and  _60
REMARK   28  A    between atoms: _60  and  _61
REMARK   29  A    between atoms: _61  and  _62
REMARK   30  A    between atoms: _62  and  _63
REMARK   31  A    between atoms: _72  and  _74
REMARK   32  A    between atoms: _74  and  _75
REMARK   33  A    between atoms: _74  and  _77
REMARK   34  A    between atoms: _77  and  _78
REMARK   35  A    between atoms: _88  and  _90
REMARK   36  A    between atoms: _90  and  _91
REMARK   37  A    between atoms: _90  and  _93
REMARK   38  A    between atoms: _93  and  _94
REMARK   39  A    between atoms: _104  and  _106
REMARK   40  A    between atoms: _106  and  _107
REMARK   41  A    between atoms: _109  and  _111
REMARK   42  A    between atoms: _111  and  _112
REMARK   43  A    between atoms: _111  and  _114
REMARK   44  A    between atoms: _114  and  _115
REMARK   45  A    between atoms: _120  and  _122
REMARK   46  A    between atoms: _122  and  _123
REMARK   47  A    between atoms: _122  and  _125
REMARK   48  A    between atoms: _125  and  _126
REMARK   49  A    between atoms: _131  and  _133
REMARK   50  A    between atoms: _133  and  _134
REMARK   51  A    between atoms: _133  and  _136
REMARK   52  A    between atoms: _136  and  _137
REMARK   53  A    between atoms: _137  and  _138
REMARK   54  A    between atoms: _138  and  _139
REMARK   55  A    between atoms: _148  and  _150
REMARK   56  A    between atoms: _150  and  _151
REMARK   57  A    between atoms: _150  and  _153
REMARK   58  A    between atoms: _153  and  _154
REMARK   59  A    between atoms: _159  and  _161
REMARK   60  A    between atoms: _161  and  _162
REMARK   61  A    between atoms: _161  and  _164
REMARK   62  A    between atoms: _164  and  _165
REMARK   63  A    between atoms: _165  and  _166
REMARK   64  A    between atoms: _166  and  _167
REMARK   65  A    between atoms: _167  and  _168
REMARK   66  A    between atoms: _172  and  _174
REMARK   67  A    between atoms: _174  and  _175
REMARK   68  A    between atoms: _174  and  _177
REMARK   69  A    between atoms: _180  and  _182
REMARK   70  A    between atoms: _182  and  _183
REMARK   71  A    between atoms: _182  and  _185
REMARK   72  A    between atoms: _185  and  _186
REMARK   73  A    between atoms: _189  and  _191
REMARK   74  A    between atoms: _191  and  _192
REMARK   75  A    between atoms: _195  and  _197
REMARK   76  A    between atoms: _197  and  _198
REMARK   77  A    between atoms: _197  and  _200
REMARK   78  A    between atoms: _200  and  _201
REMARK   79  A    between atoms: _206  and  _208
REMARK   80  A    between atoms: _208  and  _209
REMARK   81  A    between atoms: _212  and  _214
REMARK   82  A    between atoms: _214  and  _215
REMARK   83  A    between atoms: _214  and  _217
REMARK   84  A    between atoms: _220  and  _222
REMARK   85  A    between atoms: _222  and  _223
REMARK   86  A    between atoms: _222  and  _225
REMARK   87  A    between atoms: _225  and  _226
REMARK   88  A    between atoms: _231  and  _232
REMARK   89  A    between atoms: _234  and  _236
REMARK   90  A    between atoms: _236  and  _237
REMARK   91  A    between atoms: _236  and  _239
REMARK   92  A    between atoms: _239  and  _240
REMARK                            x       y       z     vdW  Elec       q    Type
REMARK                         _______ _______ _______ _____ _____    ______ ____
ROOT
ATOM      1  O   HOH     1      -1.806  15.762  16.156  0.00  0.00    +0.000 OA
ENDROOT
TORSDOF 0
REMARK  Name = ../refined-set-2016/2vmd/2vmd_pocket.pdb
REMARK  92 active torsions:
REMARK  status: ('A' for Active; 'I' for Inactive)
REMARK    1  A    between atoms: _1  and  _3
REMARK    2  A    between atoms: _3  and  _4
REMARK    3  A    between atoms: _6  and  _8
REMARK    4  A    between atoms: _8  and  _9
REMARK    5  A    between atoms: _8  and  _11
REMARK    6  A    between atoms: _11  and  _12
REMARK    7  A    between atoms: _14  and  _16
REMARK    8  A    between atoms: _16  and  _17
REMARK    9  A    between atoms: _16  and  _19
REMARK   10  A    between atoms: _19  and  _20
REMARK   11  A    between atoms: _23  and  _25
REMARK   12  A    between atoms: _25  and  _26
REMARK   13  A    between atoms: _25  and  _28
REMARK   14  A    between atoms: _28  and  _29
REMARK   15  A    between atoms: _34  and  _36
REMARK   16  A    between atoms: _36  and  _37
REMARK   17  A    between atoms: _36  and  _39
REMARK   18  A    between atoms: _39  and  _40
REMARK   19  A    between atoms: _40  and  _41
REMARK   20  A    between atoms: _46  and  _48
REMARK   21  A    between atoms: _48  and  _49
REMARK   22  A    between atoms: _48  and  _51
REMARK   23  A    between atoms: _51  and  _52
REMARK   24  A    between atoms: _52  and  _53
REMARK   25  A    between atoms: _55  and  _57
REMARK   26  A    between atoms: _57  and  _58
REMARK   27  A    between atoms: _57  and  _60
REMARK   28  A    between atoms: _60  and  _61
REMARK   29  A    between atoms: _61  and  _62
REMARK   30  A    between atoms: _62  and  _63
REMARK   31  A    between atoms: _72  and  _74
REMARK   32  A    between atoms: _74  and  _75
REMARK   33  A    between atoms: _74  and  _77
REMARK   34  A    between atoms: _77  and  _78
REMARK   35  A    between atoms: _88  and  _90
REMARK   36  A    between atoms: _90  and  _91
REMARK   37  A    between atoms: _90  and  _93
REMARK   38  A    between atoms: _93  and  _94
REMARK   39  A    between atoms: _104  and  _106
REMARK   40  A    between atoms: _106  and  _107
REMARK   41  A    between atoms: _109  and  _111
REMARK   42  A    between atoms: _111  and  _112
REMARK   43  A    between atoms: _111  and  _114
REMARK   44  A    between atoms: _114  and  _115
REMARK   45  A    between atoms: _120  and  _122
REMARK   46  A    between atoms: _122  and  _123
REMARK   47  A    between atoms: _122  and  _125
REMARK   48  A    between atoms: _125  and  _126
REMARK   49  A    between atoms: _131  and  _133
REMARK   50  A    between atoms: _133  and  _134
REMARK   51  A    between atoms: _133  and  _136
REMARK   52  A    between atoms: _136  and  _137
REMARK   53  A    between atoms: _137  and  _138
REMARK   54  A    between atoms: _138  and  _139
REMARK   55  A    between atoms: _148  and  _150
REMARK   56  A    between atoms: _150  and  _151
REMARK   57  A    between atoms: _150  and  _153
REMARK   58  A    between atoms: _153  and  _154
REMARK   59  A    between atoms: _159  and  _161
REMARK   60  A    between atoms: _161  and  _162
REMARK   61  A    between atoms: _161  and  _164
REMARK   62  A    between atoms: _164  and  _165
REMARK   63  A    between atoms: _165  and  _166
REMARK   64  A    between atoms: _166  and  _167
REMARK   65  A    between atoms: _167  and  _168
REMARK   66  A    between atoms: _172  and  _174
REMARK   67  A    between atoms: _174  and  _175
REMARK   68  A    between atoms: _174  and  _177
REMARK   69  A    between atoms: _180  and  _182
REMARK   70  A    between atoms: _182  and  _183
REMARK   71  A    between atoms: _182  and  _185
REMARK   72  A    between atoms: _185  and  _186
REMARK   73  A    between atoms: _189  and  _191
REMARK   74  A    between atoms: _191  and  _192
REMARK   75  A    between atoms: _195  and  _197
REMARK   76  A    between atoms: _197  and  _198
REMARK   77  A    between atoms: _197  and  _200
REMARK   78  A    between atoms: _200  and  _201
REMARK   79  A    between atoms: _206  and  _208
REMARK   80  A    between atoms: _208  and  _209
REMARK   81  A    between atoms: _212  and  _214
REMARK   82  A    between atoms: _214  and  _215
REMARK   83  A    between atoms: _214  and  _217
REMARK   84  A    between atoms: _220  and  _222
REMARK   85  A    between atoms: _222  and  _223
REMARK   86  A    between atoms: _222  and  _225
REMARK   87  A    between atoms: _225  and  _226
REMARK   88  A    between atoms: _231  and  _232
REMARK   89  A    between atoms: _234  and  _236
REMARK   90  A    between atoms: _236  and  _237
REMARK   91  A    between atoms: _236  and  _239
REMARK   92  A    between atoms: _239  and  _240
REMARK                            x       y       z     vdW  Elec       q    Type
REMARK                         _______ _______ _______ _____ _____    ______ ____
ROOT
ATOM      1  O   HOH     1       0.899  10.099   3.922  0.00  0.00    +0.000 OA
ENDROOT
TORSDOF 0
REMARK  Name = ../refined-set-2016/2vmd/2vmd_pocket.pdb
REMARK  92 active torsions:
REMARK  status: ('A' for Active; 'I' for Inactive)
REMARK    1  A    between atoms: _1  and  _3
REMARK    2  A    between atoms: _3  and  _4
REMARK    3  A    between atoms: _6  and  _8
REMARK    4  A    between atoms: _8  and  _9
REMARK    5  A    between atoms: _8  and  _11
REMARK    6  A    between atoms: _11  and  _12
REMARK    7  A    between atoms: _14  and  _16
REMARK    8  A    between atoms: _16  and  _17
REMARK    9  A    between atoms: _16  and  _19
REMARK   10  A    between atoms: _19  and  _20
REMARK   11  A    between atoms: _23  and  _25
REMARK   12  A    between atoms: _25  and  _26
REMARK   13  A    between atoms: _25  and  _28
REMARK   14  A    between atoms: _28  and  _29
REMARK   15  A    between atoms: _34  and  _36
REMARK   16  A    between atoms: _36  and  _37
REMARK   17  A    between atoms: _36  and  _39
REMARK   18  A    between atoms: _39  and  _40
REMARK   19  A    between atoms: _40  and  _41
REMARK   20  A    between atoms: _46  and  _48
REMARK   21  A    between atoms: _48  and  _49
REMARK   22  A    between atoms: _48  and  _51
REMARK   23  A    between atoms: _51  and  _52
REMARK   24  A    between atoms: _52  and  _53
REMARK   25  A    between atoms: _55  and  _57
REMARK   26  A    between atoms: _57  and  _58
REMARK   27  A    between atoms: _57  and  _60
REMARK   28  A    between atoms: _60  and  _61
REMARK   29  A    between atoms: _61  and  _62
REMARK   30  A    between atoms: _62  and  _63
REMARK   31  A    between atoms: _72  and  _74
REMARK   32  A    between atoms: _74  and  _75
REMARK   33  A    between atoms: _74  and  _77
REMARK   34  A    between atoms: _77  and  _78
REMARK   35  A    between atoms: _88  and  _90
REMARK   36  A    between atoms: _90  and  _91
REMARK   37  A    between atoms: _90  and  _93
REMARK   38  A    between atoms: _93  and  _94
REMARK   39  A    between atoms: _104  and  _106
REMARK   40  A    between atoms: _106  and  _107
REMARK   41  A    between atoms: _109  and  _111
REMARK   42  A    between atoms: _111  and  _112
REMARK   43  A    between atoms: _111  and  _114
REMARK   44  A    between atoms: _114  and  _115
REMARK   45  A    between atoms: _120  and  _122
REMARK   46  A    between atoms: _122  and  _123
REMARK   47  A    between atoms: _122  and  _125
REMARK   48  A    between atoms: _125  and  _126
REMARK   49  A    between atoms: _131  and  _133
REMARK   50  A    between atoms: _133  and  _134
REMARK   51  A    between atoms: _133  and  _136
REMARK   52  A    between atoms: _136  and  _137
REMARK   53  A    between atoms: _137  and  _138
REMARK   54  A    between atoms: _138  and  _139
REMARK   55  A    between atoms: _148  and  _150
REMARK   56  A    between atoms: _150  and  _151
REMARK   57  A    between atoms: _150  and  _153
REMARK   58  A    between atoms: _153  and  _154
REMARK   59  A    between atoms: _159  and  _161
REMARK   60  A    between atoms: _161  and  _162
REMARK   61  A    between atoms: _161  and  _164
REMARK   62  A    between atoms: _164  and  _165
REMARK   63  A    between atoms: _165  and  _166
REMARK   64  A    between atoms: _166  and  _167
REMARK   65  A    between atoms: _167  and  _168
REMARK   66  A    between atoms: _172  and  _174
REMARK   67  A    between atoms: _174  and  _175
REMARK   68  A    between atoms: _174  and  _177
REMARK   69  A    between atoms: _180  and  _182
REMARK   70  A    between atoms: _182  and  _183
REMARK   71  A    between atoms: _182  and  _185
REMARK   72  A    between atoms: _185  and  _186
REMARK   73  A    between atoms: _189  and  _191
REMARK   74  A    between atoms: _191  and  _192
REMARK   75  A    between atoms: _195  and  _197
REMARK   76  A    between atoms: _197  and  _198
REMARK   77  A    between atoms: _197  and  _200
REMARK   78  A    between atoms: _200  and  _201
REMARK   79  A    between atoms: _206  and  _208
REMARK   80  A    between atoms: _208  and  _209
REMARK   81  A    between atoms: _212  and  _214
REMARK   82  A    between atoms: _214  and  _215
REMARK   83  A    between atoms: _214  and  _217
REMARK   84  A    between atoms: _220  and  _222
REMARK   85  A    between atoms: _222  and  _223
REMARK   86  A    between atoms: _222  and  _225
REMARK   87  A    between atoms: _225  and  _226
REMARK   88  A    between atoms: _231  and  _232
REMARK   89  A    between atoms: _234  and  _236
REMARK   90  A    between atoms: _236  and  _237
REMARK   91  A    between atoms: _236  and  _239
REMARK   92  A    between atoms: _239  and  _240
REMARK                            x       y       z     vdW  Elec       q    Type
REMARK                         _______ _______ _______ _____ _____    ______ ____
ROOT
ATOM      1  O   HOH     1       0.138  15.004  16.338  0.00  0.00    +0.000 OA
ENDROOT
TORSDOF 0
REMARK  Name = ../refined-set-2016/2vmd/2vmd_pocket.pdb
REMARK  92 active torsions:
REMARK  status: ('A' for Active; 'I' for Inactive)
REMARK    1  A    between atoms: _1  and  _3
REMARK    2  A    between atoms: _3  and  _4
REMARK    3  A    between atoms: _6  and  _8
REMARK    4  A    between atoms: _8  and  _9
REMARK    5  A    between atoms: _8  and  _11
REMARK    6  A    between atoms: _11  and  _12
REMARK    7  A    between atoms: _14  and  _16
REMARK    8  A    between atoms: _16  and  _17
REMARK    9  A    between atoms: _16  and  _19
REMARK   10  A    between atoms: _19  and  _20
REMARK   11  A    between atoms: _23  and  _25
REMARK   12  A    between atoms: _25  and  _26
REMARK   13  A    between atoms: _25  and  _28
REMARK   14  A    between atoms: _28  and  _29
REMARK   15  A    between atoms: _34  and  _36
REMARK   16  A    between atoms: _36  and  _37
REMARK   17  A    between atoms: _36  and  _39
REMARK   18  A    between atoms: _39  and  _40
REMARK   19  A    between atoms: _40  and  _41
REMARK   20  A    between atoms: _46  and  _48
REMARK   21  A    between atoms: _48  and  _49
REMARK   22  A    between atoms: _48  and  _51
REMARK   23  A    between atoms: _51  and  _52
REMARK   24  A    between atoms: _52  and  _53
REMARK   25  A    between atoms: _55  and  _57
REMARK   26  A    between atoms: _57  and  _58
REMARK   27  A    between atoms: _57  and  _60
REMARK   28  A    between atoms: _60  and  _61
REMARK   29  A    between atoms: _61  and  _62
REMARK   30  A    between atoms: _62  and  _63
REMARK   31  A    between atoms: _72  and  _74
REMARK   32  A    between atoms: _74  and  _75
REMARK   33  A    between atoms: _74  and  _77
REMARK   34  A    between atoms: _77  and  _78
REMARK   35  A    between atoms: _88  and  _90
REMARK   36  A    between atoms: _90  and  _91
REMARK   37  A    between atoms: _90  and  _93
REMARK   38  A    between atoms: _93  and  _94
REMARK   39  A    between atoms: _104  and  _106
REMARK   40  A    between atoms: _106  and  _107
REMARK   41  A    between atoms: _109  and  _111
REMARK   42  A    between atoms: _111  and  _112
REMARK   43  A    between atoms: _111  and  _114
REMARK   44  A    between atoms: _114  and  _115
REMARK   45  A    between atoms: _120  and  _122
REMARK   46  A    between atoms: _122  and  _123
REMARK   47  A    between atoms: _122  and  _125
REMARK   48  A    between atoms: _125  and  _126
REMARK   49  A    between atoms: _131  and  _133
REMARK   50  A    between atoms: _133  and  _134
REMARK   51  A    between atoms: _133  and  _136
REMARK   52  A    between atoms: _136  and  _137
REMARK   53  A    between atoms: _137  and  _138
REMARK   54  A    between atoms: _138  and  _139
REMARK   55  A    between atoms: _148  and  _150
REMARK   56  A    between atoms: _150  and  _151
REMARK   57  A    between atoms: _150  and  _153
REMARK   58  A    between atoms: _153  and  _154
REMARK   59  A    between atoms: _159  and  _161
REMARK   60  A    between atoms: _161  and  _162
REMARK   61  A    between atoms: _161  and  _164
REMARK   62  A    between atoms: _164  and  _165
REMARK   63  A    between atoms: _165  and  _166
REMARK   64  A    between atoms: _166  and  _167
REMARK   65  A    between atoms: _167  and  _168
REMARK   66  A    between atoms: _172  and  _174
REMARK   67  A    between atoms: _174  and  _175
REMARK   68  A    between atoms: _174  and  _177
REMARK   69  A    between atoms: _180  and  _182
REMARK   70  A    between atoms: _182  and  _183
REMARK   71  A    between atoms: _182  and  _185
REMARK   72  A    between atoms: _185  and  _186
REMARK   73  A    between atoms: _189  and  _191
REMARK   74  A    between atoms: _191  and  _192
REMARK   75  A    between atoms: _195  and  _197
REMARK   76  A    between atoms: _197  and  _198
REMARK   77  A    between atoms: _197  and  _200
REMARK   78  A    between atoms: _200  and  _201
REMARK   79  A    between atoms: _206  and  _208
REMARK   80  A    between atoms: _208  and  _209
REMARK   81  A    between atoms: _212  and  _214
REMARK   82  A    between atoms: _214  and  _215
REMARK   83  A    between atoms: _214  and  _217
REMARK   84  A    between atoms: _220  and  _222
REMARK   85  A    between atoms: _222  and  _223
REMARK   86  A    between atoms: _222  and  _225
REMARK   87  A    between atoms: _225  and  _226
REMARK   88  A    between atoms: _231  and  _232
REMARK   89  A    between atoms: _234  and  _236
REMARK   90  A    between atoms: _236  and  _237
REMARK   91  A    between atoms: _236  and  _239
REMARK   92  A    between atoms: _239  and  _240
REMARK                            x       y       z     vdW  Elec       q    Type
REMARK                         _______ _______ _______ _____ _____    ______ ____
ROOT
ATOM      1  O   HOH     1      -2.669  16.803   9.184  0.00  0.00    +0.000 OA
ENDROOT
TORSDOF 0
REMARK  Name = ../refined-set-2016/2vmd/2vmd_pocket.pdb
REMARK  92 active torsions:
REMARK  status: ('A' for Active; 'I' for Inactive)
REMARK    1  A    between atoms: _1  and  _3
REMARK    2  A    between atoms: _3  and  _4
REMARK    3  A    between atoms: _6  and  _8
REMARK    4  A    between atoms: _8  and  _9
REMARK    5  A    between atoms: _8  and  _11
REMARK    6  A    between atoms: _11  and  _12
REMARK    7  A    between atoms: _14  and  _16
REMARK    8  A    between atoms: _16  and  _17
REMARK    9  A    between atoms: _16  and  _19
REMARK   10  A    between atoms: _19  and  _20
REMARK   11  A    between atoms: _23  and  _25
REMARK   12  A    between atoms: _25  and  _26
REMARK   13  A    between atoms: _25  and  _28
REMARK   14  A    between atoms: _28  and  _29
REMARK   15  A    between atoms: _34  and  _36
REMARK   16  A    between atoms: _36  and  _37
REMARK   17  A    between atoms: _36  and  _39
REMARK   18  A    between atoms: _39  and  _40
REMARK   19  A    between atoms: _40  and  _41
REMARK   20  A    between atoms: _46  and  _48
REMARK   21  A    between atoms: _48  and  _49
REMARK   22  A    between atoms: _48  and  _51
REMARK   23  A    between atoms: _51  and  _52
REMARK   24  A    between atoms: _52  and  _53
REMARK   25  A    between atoms: _55  and  _57
REMARK   26  A    between atoms: _57  and  _58
REMARK   27  A    between atoms: _57  and  _60
REMARK   28  A    between atoms: _60  and  _61
REMARK   29  A    between atoms: _61  and  _62
REMARK   30  A    between atoms: _62  and  _63
REMARK   31  A    between atoms: _72  and  _74
REMARK   32  A    between atoms: _74  and  _75
REMARK   33  A    between atoms: _74  and  _77
REMARK   34  A    between atoms: _77  and  _78
REMARK   35  A    between atoms: _88  and  _90
REMARK   36  A    between atoms: _90  and  _91
REMARK   37  A    between atoms: _90  and  _93
REMARK   38  A    between atoms: _93  and  _94
REMARK   39  A    between atoms: _104  and  _106
REMARK   40  A    between atoms: _106  and  _107
REMARK   41  A    between atoms: _109  and  _111
REMARK   42  A    between atoms: _111  and  _112
REMARK   43  A    between atoms: _111  and  _114
REMARK   44  A    between atoms: _114  and  _115
REMARK   45  A    between atoms: _120  and  _122
REMARK   46  A    between atoms: _122  and  _123
REMARK   47  A    between atoms: _122  and  _125
REMARK   48  A    between atoms: _125  and  _126
REMARK   49  A    between atoms: _131  and  _133
REMARK   50  A    between atoms: _133  and  _134
REMARK   51  A    between atoms: _133  and  _136
REMARK   52  A    between atoms: _136  and  _137
REMARK   53  A    between atoms: _137  and  _138
REMARK   54  A    between atoms: _138  and  _139
REMARK   55  A    between atoms: _148  and  _150
REMARK   56  A    between atoms: _150  and  _151
REMARK   57  A    between atoms: _150  and  _153
REMARK   58  A    between atoms: _153  and  _154
REMARK   59  A    between atoms: _159  and  _161
REMARK   60  A    between atoms: _161  and  _162
REMARK   61  A    between atoms: _161  and  _164
REMARK   62  A    between atoms: _164  and  _165
REMARK   63  A    between atoms: _165  and  _166
REMARK   64  A    between atoms: _166  and  _167
REMARK   65  A    between atoms: _167  and  _168
REMARK   66  A    between atoms: _172  and  _174
REMARK   67  A    between atoms: _174  and  _175
REMARK   68  A    between atoms: _174  and  _177
REMARK   69  A    between atoms: _180  and  _182
REMARK   70  A    between atoms: _182  and  _183
REMARK   71  A    between atoms: _182  and  _185
REMARK   72  A    between atoms: _185  and  _186
REMARK   73  A    between atoms: _189  and  _191
REMARK   74  A    between atoms: _191  and  _192
REMARK   75  A    between atoms: _195  and  _197
REMARK   76  A    between atoms: _197  and  _198
REMARK   77  A    between atoms: _197  and  _200
REMARK   78  A    between atoms: _200  and  _201
REMARK   79  A    between atoms: _206  and  _208
REMARK   80  A    between atoms: _208  and  _209
REMARK   81  A    between atoms: _212  and  _214
REMARK   82  A    between atoms: _214  and  _215
REMARK   83  A    between atoms: _214  and  _217
REMARK   84  A    between atoms: _220  and  _222
REMARK   85  A    between atoms: _222  and  _223
REMARK   86  A    between atoms: _222  and  _225
REMARK   87  A    between atoms: _225  and  _226
REMARK   88  A    between atoms: _231  and  _232
REMARK   89  A    between atoms: _234  and  _236
REMARK   90  A    between atoms: _236  and  _237
REMARK   91  A    between atoms: _236  and  _239
REMARK   92  A    between atoms: _239  and  _240
REMARK                            x       y       z     vdW  Elec       q    Type
REMARK                         _______ _______ _______ _____ _____    ______ ____
ROOT
ATOM      1  O   HOH     1      -2.967  15.758   4.603  0.00  0.00    +0.000 OA
ENDROOT
TORSDOF 0
REMARK  Name = ../refined-set-2016/2vmd/2vmd_pocket.pdb
REMARK  92 active torsions:
REMARK  status: ('A' for Active; 'I' for Inactive)
REMARK    1  A    between atoms: _1  and  _3
REMARK    2  A    between atoms: _3  and  _4
REMARK    3  A    between atoms: _6  and  _8
REMARK    4  A    between atoms: _8  and  _9
REMARK    5  A    between atoms: _8  and  _11
REMARK    6  A    between atoms: _11  and  _12
REMARK    7  A    between atoms: _14  and  _16
REMARK    8  A    between atoms: _16  and  _17
REMARK    9  A    between atoms: _16  and  _19
REMARK   10  A    between atoms: _19  and  _20
REMARK   11  A    between atoms: _23  and  _25
REMARK   12  A    between atoms: _25  and  _26
REMARK   13  A    between atoms: _25  and  _28
REMARK   14  A    between atoms: _28  and  _29
REMARK   15  A    between atoms: _34  and  _36
REMARK   16  A    between atoms: _36  and  _37
REMARK   17  A    between atoms: _36  and  _39
REMARK   18  A    between atoms: _39  and  _40
REMARK   19  A    between atoms: _40  and  _41
REMARK   20  A    between atoms: _46  and  _48
REMARK   21  A    between atoms: _48  and  _49
REMARK   22  A    between atoms: _48  and  _51
REMARK   23  A    between atoms: _51  and  _52
REMARK   24  A    between atoms: _52  and  _53
REMARK   25  A    between atoms: _55  and  _57
REMARK   26  A    between atoms: _57  and  _58
REMARK   27  A    between atoms: _57  and  _60
REMARK   28  A    between atoms: _60  and  _61
REMARK   29  A    between atoms: _61  and  _62
REMARK   30  A    between atoms: _62  and  _63
REMARK   31  A    between atoms: _72  and  _74
REMARK   32  A    between atoms: _74  and  _75
REMARK   33  A    between atoms: _74  and  _77
REMARK   34  A    between atoms: _77  and  _78
REMARK   35  A    between atoms: _88  and  _90
REMARK   36  A    between atoms: _90  and  _91
REMARK   37  A    between atoms: _90  and  _93
REMARK   38  A    between atoms: _93  and  _94
REMARK   39  A    between atoms: _104  and  _106
REMARK   40  A    between atoms: _106  and  _107
REMARK   41  A    between atoms: _109  and  _111
REMARK   42  A    between atoms: _111  and  _112
REMARK   43  A    between atoms: _111  and  _114
REMARK   44  A    between atoms: _114  and  _115
REMARK   45  A    between atoms: _120  and  _122
REMARK   46  A    between atoms: _122  and  _123
REMARK   47  A    between atoms: _122  and  _125
REMARK   48  A    between atoms: _125  and  _126
REMARK   49  A    between atoms: _131  and  _133
REMARK   50  A    between atoms: _133  and  _134
REMARK   51  A    between atoms: _133  and  _136
REMARK   52  A    between atoms: _136  and  _137
REMARK   53  A    between atoms: _137  and  _138
REMARK   54  A    between atoms: _138  and  _139
REMARK   55  A    between atoms: _148  and  _150
REMARK   56  A    between atoms: _150  and  _151
REMARK   57  A    between atoms: _150  and  _153
REMARK   58  A    between atoms: _153  and  _154
REMARK   59  A    between atoms: _159  and  _161
REMARK   60  A    between atoms: _161  and  _162
REMARK   61  A    between atoms: _161  and  _164
REMARK   62  A    between atoms: _164  and  _165
REMARK   63  A    between atoms: _165  and  _166
REMARK   64  A    between atoms: _166  and  _167
REMARK   65  A    between atoms: _167  and  _168
REMARK   66  A    between atoms: _172  and  _174
REMARK   67  A    between atoms: _174  and  _175
REMARK   68  A    between atoms: _174  and  _177
REMARK   69  A    between atoms: _180  and  _182
REMARK   70  A    between atoms: _182  and  _183
REMARK   71  A    between atoms: _182  and  _185
REMARK   72  A    between atoms: _185  and  _186
REMARK   73  A    between atoms: _189  and  _191
REMARK   74  A    between atoms: _191  and  _192
REMARK   75  A    between atoms: _195  and  _197
REMARK   76  A    between atoms: _197  and  _198
REMARK   77  A    between atoms: _197  and  _200
REMARK   78  A    between atoms: _200  and  _201
REMARK   79  A    between atoms: _206  and  _208
REMARK   80  A    between atoms: _208  and  _209
REMARK   81  A    between atoms: _212  and  _214
REMARK   82  A    between atoms: _214  and  _215
REMARK   83  A    between atoms: _214  and  _217
REMARK   84  A    between atoms: _220  and  _222
REMARK   85  A    between atoms: _222  and  _223
REMARK   86  A    between atoms: _222  and  _225
REMARK   87  A    between atoms: _225  and  _226
REMARK   88  A    between atoms: _231  and  _232
REMARK   89  A    between atoms: _234  and  _236
REMARK   90  A    between atoms: _236  and  _237
REMARK   91  A    between atoms: _236  and  _239
REMARK   92  A    between atoms: _239  and  _240
REMARK                            x       y       z     vdW  Elec       q    Type
REMARK                         _______ _______ _______ _____ _____    ______ ____
ROOT
ATOM      1  O   HOH     1       4.538   9.521   4.361  0.00  0.00    +0.000 OA
ENDROOT
TORSDOF 0
REMARK  Name = ../refined-set-2016/2vmd/2vmd_pocket.pdb
REMARK  92 active torsions:
REMARK  status: ('A' for Active; 'I' for Inactive)
REMARK    1  A    between atoms: _1  and  _3
REMARK    2  A    between atoms: _3  and  _4
REMARK    3  A    between atoms: _6  and  _8
REMARK    4  A    between atoms: _8  and  _9
REMARK    5  A    between atoms: _8  and  _11
REMARK    6  A    between atoms: _11  and  _12
REMARK    7  A    between atoms: _14  and  _16
REMARK    8  A    between atoms: _16  and  _17
REMARK    9  A    between atoms: _16  and  _19
REMARK   10  A    between atoms: _19  and  _20
REMARK   11  A    between atoms: _23  and  _25
REMARK   12  A    between atoms: _25  and  _26
REMARK   13  A    between atoms: _25  and  _28
REMARK   14  A    between atoms: _28  and  _29
REMARK   15  A    between atoms: _34  and  _36
REMARK   16  A    between atoms: _36  and  _37
REMARK   17  A    between atoms: _36  and  _39
REMARK   18  A    between atoms: _39  and  _40
REMARK   19  A    between atoms: _40  and  _41
REMARK   20  A    between atoms: _46  and  _48
REMARK   21  A    between atoms: _48  and  _49
REMARK   22  A    between atoms: _48  and  _51
REMARK   23  A    between atoms: _51  and  _52
REMARK   24  A    between atoms: _52  and  _53
REMARK   25  A    between atoms: _55  and  _57
REMARK   26  A    between atoms: _57  and  _58
REMARK   27  A    between atoms: _57  and  _60
REMARK   28  A    between atoms: _60  and  _61
REMARK   29  A    between atoms: _61  and  _62
REMARK   30  A    between atoms: _62  and  _63
REMARK   31  A    between atoms: _72  and  _74
REMARK   32  A    between atoms: _74  and  _75
REMARK   33  A    between atoms: _74  and  _77
REMARK   34  A    between atoms: _77  and  _78
REMARK   35  A    between atoms: _88  and  _90
REMARK   36  A    between atoms: _90  and  _91
REMARK   37  A    between atoms: _90  and  _93
REMARK   38  A    between atoms: _93  and  _94
REMARK   39  A    between atoms: _104  and  _106
REMARK   40  A    between atoms: _106  and  _107
REMARK   41  A    between atoms: _109  and  _111
REMARK   42  A    between atoms: _111  and  _112
REMARK   43  A    between atoms: _111  and  _114
REMARK   44  A    between atoms: _114  and  _115
REMARK   45  A    between atoms: _120  and  _122
REMARK   46  A    between atoms: _122  and  _123
REMARK   47  A    between atoms: _122  and  _125
REMARK   48  A    between atoms: _125  and  _126
REMARK   49  A    between atoms: _131  and  _133
REMARK   50  A    between atoms: _133  and  _134
REMARK   51  A    between atoms: _133  and  _136
REMARK   52  A    between atoms: _136  and  _137
REMARK   53  A    between atoms: _137  and  _138
REMARK   54  A    between atoms: _138  and  _139
REMARK   55  A    between atoms: _148  and  _150
REMARK   56  A    between atoms: _150  and  _151
REMARK   57  A    between atoms: _150  and  _153
REMARK   58  A    between atoms: _153  and  _154
REMARK   59  A    between atoms: _159  and  _161
REMARK   60  A    between atoms: _161  and  _162
REMARK   61  A    between atoms: _161  and  _164
REMARK   62  A    between atoms: _164  and  _165
REMARK   63  A    between atoms: _165  and  _166
REMARK   64  A    between atoms: _166  and  _167
REMARK   65  A    between atoms: _167  and  _168
REMARK   66  A    between atoms: _172  and  _174
REMARK   67  A    between atoms: _174  and  _175
REMARK   68  A    between atoms: _174  and  _177
REMARK   69  A    between atoms: _180  and  _182
REMARK   70  A    between atoms: _182  and  _183
REMARK   71  A    between atoms: _182  and  _185
REMARK   72  A    between atoms: _185  and  _186
REMARK   73  A    between atoms: _189  and  _191
REMARK   74  A    between atoms: _191  and  _192
REMARK   75  A    between atoms: _195  and  _197
REMARK   76  A    between atoms: _197  and  _198
REMARK   77  A    between atoms: _197  and  _200
REMARK   78  A    between atoms: _200  and  _201
REMARK   79  A    between atoms: _206  and  _208
REMARK   80  A    between atoms: _208  and  _209
REMARK   81  A    between atoms: _212  and  _214
REMARK   82  A    between atoms: _214  and  _215
REMARK   83  A    between atoms: _214  and  _217
REMARK   84  A    between atoms: _220  and  _222
REMARK   85  A    between atoms: _222  and  _223
REMARK   86  A    between atoms: _222  and  _225
REMARK   87  A    between atoms: _225  and  _226
REMARK   88  A    between atoms: _231  and  _232
REMARK   89  A    between atoms: _234  and  _236
REMARK   90  A    between atoms: _236  and  _237
REMARK   91  A    between atoms: _236  and  _239
REMARK   92  A    between atoms: _239  and  _240
REMARK                            x       y       z     vdW  Elec       q    Type
REMARK                         _______ _______ _______ _____ _____    ______ ____
ROOT
ATOM      1  O   HOH     1       8.369  11.168   6.308  0.00  0.00    +0.000 OA
ENDROOT
TORSDOF 0
REMARK  Name = ../refined-set-2016/2vmd/2vmd_pocket.pdb
REMARK  92 active torsions:
REMARK  status: ('A' for Active; 'I' for Inactive)
REMARK    1  A    between atoms: _1  and  _3
REMARK    2  A    between atoms: _3  and  _4
REMARK    3  A    between atoms: _6  and  _8
REMARK    4  A    between atoms: _8  and  _9
REMARK    5  A    between atoms: _8  and  _11
REMARK    6  A    between atoms: _11  and  _12
REMARK    7  A    between atoms: _14  and  _16
REMARK    8  A    between atoms: _16  and  _17
REMARK    9  A    between atoms: _16  and  _19
REMARK   10  A    between atoms: _19  and  _20
REMARK   11  A    between atoms: _23  and  _25
REMARK   12  A    between atoms: _25  and  _26
REMARK   13  A    between atoms: _25  and  _28
REMARK   14  A    between atoms: _28  and  _29
REMARK   15  A    between atoms: _34  and  _36
REMARK   16  A    between atoms: _36  and  _37
REMARK   17  A    between atoms: _36  and  _39
REMARK   18  A    between atoms: _39  and  _40
REMARK   19  A    between atoms: _40  and  _41
REMARK   20  A    between atoms: _46  and  _48
REMARK   21  A    between atoms: _48  and  _49
REMARK   22  A    between atoms: _48  and  _51
REMARK   23  A    between atoms: _51  and  _52
REMARK   24  A    between atoms: _52  and  _53
REMARK   25  A    between atoms: _55  and  _57
REMARK   26  A    between atoms: _57  and  _58
REMARK   27  A    between atoms: _57  and  _60
REMARK   28  A    between atoms: _60  and  _61
REMARK   29  A    between atoms: _61  and  _62
REMARK   30  A    between atoms: _62  and  _63
REMARK   31  A    between atoms: _72  and  _74
REMARK   32  A    between atoms: _74  and  _75
REMARK   33  A    between atoms: _74  and  _77
REMARK   34  A    between atoms: _77  and  _78
REMARK   35  A    between atoms: _88  and  _90
REMARK   36  A    between atoms: _90  and  _91
REMARK   37  A    between atoms: _90  and  _93
REMARK   38  A    between atoms: _93  and  _94
REMARK   39  A    between atoms: _104  and  _106
REMARK   40  A    between atoms: _106  and  _107
REMARK   41  A    between atoms: _109  and  _111
REMARK   42  A    between atoms: _111  and  _112
REMARK   43  A    between atoms: _111  and  _114
REMARK   44  A    between atoms: _114  and  _115
REMARK   45  A    between atoms: _120  and  _122
REMARK   46  A    between atoms: _122  and  _123
REMARK   47  A    between atoms: _122  and  _125
REMARK   48  A    between atoms: _125  and  _126
REMARK   49  A    between atoms: _131  and  _133
REMARK   50  A    between atoms: _133  and  _134
REMARK   51  A    between atoms: _133  and  _136
REMARK   52  A    between atoms: _136  and  _137
REMARK   53  A    between atoms: _137  and  _138
REMARK   54  A    between atoms: _138  and  _139
REMARK   55  A    between atoms: _148  and  _150
REMARK   56  A    between atoms: _150  and  _151
REMARK   57  A    between atoms: _150  and  _153
REMARK   58  A    between atoms: _153  and  _154
REMARK   59  A    between atoms: _159  and  _161
REMARK   60  A    between atoms: _161  and  _162
REMARK   61  A    between atoms: _161  and  _164
REMARK   62  A    between atoms: _164  and  _165
REMARK   63  A    between atoms: _165  and  _166
REMARK   64  A    between atoms: _166  and  _167
REMARK   65  A    between atoms: _167  and  _168
REMARK   66  A    between atoms: _172  and  _174
REMARK   67  A    between atoms: _174  and  _175
REMARK   68  A    between atoms: _174  and  _177
REMARK   69  A    between atoms: _180  and  _182
REMARK   70  A    between atoms: _182  and  _183
REMARK   71  A    between atoms: _182  and  _185
REMARK   72  A    between atoms: _185  and  _186
REMARK   73  A    between atoms: _189  and  _191
REMARK   74  A    between atoms: _191  and  _192
REMARK   75  A    between atoms: _195  and  _197
REMARK   76  A    between atoms: _197  and  _198
REMARK   77  A    between atoms: _197  and  _200
REMARK   78  A    between atoms: _200  and  _201
REMARK   79  A    between atoms: _206  and  _208
REMARK   80  A    between atoms: _208  and  _209
REMARK   81  A    between atoms: _212  and  _214
REMARK   82  A    between atoms: _214  and  _215
REMARK   83  A    between atoms: _214  and  _217
REMARK   84  A    between atoms: _220  and  _222
REMARK   85  A    between atoms: _222  and  _223
REMARK   86  A    between atoms: _222  and  _225
REMARK   87  A    between atoms: _225  and  _226
REMARK   88  A    between atoms: _231  and  _232
REMARK   89  A    between atoms: _234  and  _236
REMARK   90  A    between atoms: _236  and  _237
REMARK   91  A    between atoms: _236  and  _239
REMARK   92  A    between atoms: _239  and  _240
REMARK                            x       y       z     vdW  Elec       q    Type
REMARK                         _______ _______ _______ _____ _____    ______ ____
ROOT
ATOM      1  O   HOH     1      10.827  16.945  11.019  0.00  0.00    +0.000 OA
ENDROOT
TORSDOF 0
REMARK  Name = ../refined-set-2016/2vmd/2vmd_pocket.pdb
REMARK  92 active torsions:
REMARK  status: ('A' for Active; 'I' for Inactive)
REMARK    1  A    between atoms: _1  and  _3
REMARK    2  A    between atoms: _3  and  _4
REMARK    3  A    between atoms: _6  and  _8
REMARK    4  A    between atoms: _8  and  _9
REMARK    5  A    between atoms: _8  and  _11
REMARK    6  A    between atoms: _11  and  _12
REMARK    7  A    between atoms: _14  and  _16
REMARK    8  A    between atoms: _16  and  _17
REMARK    9  A    between atoms: _16  and  _19
REMARK   10  A    between atoms: _19  and  _20
REMARK   11  A    between atoms: _23  and  _25
REMARK   12  A    between atoms: _25  and  _26
REMARK   13  A    between atoms: _25  and  _28
REMARK   14  A    between atoms: _28  and  _29
REMARK   15  A    between atoms: _34  and  _36
REMARK   16  A    between atoms: _36  and  _37
REMARK   17  A    between atoms: _36  and  _39
REMARK   18  A    between atoms: _39  and  _40
REMARK   19  A    between atoms: _40  and  _41
REMARK   20  A    between atoms: _46  and  _48
REMARK   21  A    between atoms: _48  and  _49
REMARK   22  A    between atoms: _48  and  _51
REMARK   23  A    between atoms: _51  and  _52
REMARK   24  A    between atoms: _52  and  _53
REMARK   25  A    between atoms: _55  and  _57
REMARK   26  A    between atoms: _57  and  _58
REMARK   27  A    between atoms: _57  and  _60
REMARK   28  A    between atoms: _60  and  _61
REMARK   29  A    between atoms: _61  and  _62
REMARK   30  A    between atoms: _62  and  _63
REMARK   31  A    between atoms: _72  and  _74
REMARK   32  A    between atoms: _74  and  _75
REMARK   33  A    between atoms: _74  and  _77
REMARK   34  A    between atoms: _77  and  _78
REMARK   35  A    between atoms: _88  and  _90
REMARK   36  A    between atoms: _90  and  _91
REMARK   37  A    between atoms: _90  and  _93
REMARK   38  A    between atoms: _93  and  _94
REMARK   39  A    between atoms: _104  and  _106
REMARK   40  A    between atoms: _106  and  _107
REMARK   41  A    between atoms: _109  and  _111
REMARK   42  A    between atoms: _111  and  _112
REMARK   43  A    between atoms: _111  and  _114
REMARK   44  A    between atoms: _114  and  _115
REMARK   45  A    between atoms: _120  and  _122
REMARK   46  A    between atoms: _122  and  _123
REMARK   47  A    between atoms: _122  and  _125
REMARK   48  A    between atoms: _125  and  _126
REMARK   49  A    between atoms: _131  and  _133
REMARK   50  A    between atoms: _133  and  _134
REMARK   51  A    between atoms: _133  and  _136
REMARK   52  A    between atoms: _136  and  _137
REMARK   53  A    between atoms: _137  and  _138
REMARK   54  A    between atoms: _138  and  _139
REMARK   55  A    between atoms: _148  and  _150
REMARK   56  A    between atoms: _150  and  _151
REMARK   57  A    between atoms: _150  and  _153
REMARK   58  A    between atoms: _153  and  _154
REMARK   59  A    between atoms: _159  and  _161
REMARK   60  A    between atoms: _161  and  _162
REMARK   61  A    between atoms: _161  and  _164
REMARK   62  A    between atoms: _164  and  _165
REMARK   63  A    between atoms: _165  and  _166
REMARK   64  A    between atoms: _166  and  _167
REMARK   65  A    between atoms: _167  and  _168
REMARK   66  A    between atoms: _172  and  _174
REMARK   67  A    between atoms: _174  and  _175
REMARK   68  A    between atoms: _174  and  _177
REMARK   69  A    between atoms: _180  and  _182
REMARK   70  A    between atoms: _182  and  _183
REMARK   71  A    between atoms: _182  and  _185
REMARK   72  A    between atoms: _185  and  _186
REMARK   73  A    between atoms: _189  and  _191
REMARK   74  A    between atoms: _191  and  _192
REMARK   75  A    between atoms: _195  and  _197
REMARK   76  A    between atoms: _197  and  _198
REMARK   77  A    between atoms: _197  and  _200
REMARK   78  A    between atoms: _200  and  _201
REMARK   79  A    between atoms: _206  and  _208
REMARK   80  A    between atoms: _208  and  _209
REMARK   81  A    between atoms: _212  and  _214
REMARK   82  A    between atoms: _214  and  _215
REMARK   83  A    between atoms: _214  and  _217
REMARK   84  A    between atoms: _220  and  _222
REMARK   85  A    between atoms: _222  and  _223
REMARK   86  A    between atoms: _222  and  _225
REMARK   87  A    between atoms: _225  and  _226
REMARK   88  A    between atoms: _231  and  _232
REMARK   89  A    between atoms: _234  and  _236
REMARK   90  A    between atoms: _236  and  _237
REMARK   91  A    between atoms: _236  and  _239
REMARK   92  A    between atoms: _239  and  _240
REMARK                            x       y       z     vdW  Elec       q    Type
REMARK                         _______ _______ _______ _____ _____    ______ ____
ROOT
ATOM      1  O   HOH     1       7.481   7.636   8.604  0.00  0.00    +0.000 OA
ENDROOT
TORSDOF 0
REMARK  Name = ../refined-set-2016/2vmd/2vmd_pocket.pdb
REMARK  92 active torsions:
REMARK  status: ('A' for Active; 'I' for Inactive)
REMARK    1  A    between atoms: _1  and  _3
REMARK    2  A    between atoms: _3  and  _4
REMARK    3  A    between atoms: _6  and  _8
REMARK    4  A    between atoms: _8  and  _9
REMARK    5  A    between atoms: _8  and  _11
REMARK    6  A    between atoms: _11  and  _12
REMARK    7  A    between atoms: _14  and  _16
REMARK    8  A    between atoms: _16  and  _17
REMARK    9  A    between atoms: _16  and  _19
REMARK   10  A    between atoms: _19  and  _20
REMARK   11  A    between atoms: _23  and  _25
REMARK   12  A    between atoms: _25  and  _26
REMARK   13  A    between atoms: _25  and  _28
REMARK   14  A    between atoms: _28  and  _29
REMARK   15  A    between atoms: _34  and  _36
REMARK   16  A    between atoms: _36  and  _37
REMARK   17  A    between atoms: _36  and  _39
REMARK   18  A    between atoms: _39  and  _40
REMARK   19  A    between atoms: _40  and  _41
REMARK   20  A    between atoms: _46  and  _48
REMARK   21  A    between atoms: _48  and  _49
REMARK   22  A    between atoms: _48  and  _51
REMARK   23  A    between atoms: _51  and  _52
REMARK   24  A    between atoms: _52  and  _53
REMARK   25  A    between atoms: _55  and  _57
REMARK   26  A    between atoms: _57  and  _58
REMARK   27  A    between atoms: _57  and  _60
REMARK   28  A    between atoms: _60  and  _61
REMARK   29  A    between atoms: _61  and  _62
REMARK   30  A    between atoms: _62  and  _63
REMARK   31  A    between atoms: _72  and  _74
REMARK   32  A    between atoms: _74  and  _75
REMARK   33  A    between atoms: _74  and  _77
REMARK   34  A    between atoms: _77  and  _78
REMARK   35  A    between atoms: _88  and  _90
REMARK   36  A    between atoms: _90  and  _91
REMARK   37  A    between atoms: _90  and  _93
REMARK   38  A    between atoms: _93  and  _94
REMARK   39  A    between atoms: _104  and  _106
REMARK   40  A    between atoms: _106  and  _107
REMARK   41  A    between atoms: _109  and  _111
REMARK   42  A    between atoms: _111  and  _112
REMARK   43  A    between atoms: _111  and  _114
REMARK   44  A    between atoms: _114  and  _115
REMARK   45  A    between atoms: _120  and  _122
REMARK   46  A    between atoms: _122  and  _123
REMARK   47  A    between atoms: _122  and  _125
REMARK   48  A    between atoms: _125  and  _126
REMARK   49  A    between atoms: _131  and  _133
REMARK   50  A    between atoms: _133  and  _134
REMARK   51  A    between atoms: _133  and  _136
REMARK   52  A    between atoms: _136  and  _137
REMARK   53  A    between atoms: _137  and  _138
REMARK   54  A    between atoms: _138  and  _139
REMARK   55  A    between atoms: _148  and  _150
REMARK   56  A    between atoms: _150  and  _151
REMARK   57  A    between atoms: _150  and  _153
REMARK   58  A    between atoms: _153  and  _154
REMARK   59  A    between atoms: _159  and  _161
REMARK   60  A    between atoms: _161  and  _162
REMARK   61  A    between atoms: _161  and  _164
REMARK   62  A    between atoms: _164  and  _165
REMARK   63  A    between atoms: _165  and  _166
REMARK   64  A    between atoms: _166  and  _167
REMARK   65  A    between atoms: _167  and  _168
REMARK   66  A    between atoms: _172  and  _174
REMARK   67  A    between atoms: _174  and  _175
REMARK   68  A    between atoms: _174  and  _177
REMARK   69  A    between atoms: _180  and  _182
REMARK   70  A    between atoms: _182  and  _183
REMARK   71  A    between atoms: _182  and  _185
REMARK   72  A    between atoms: _185  and  _186
REMARK   73  A    between atoms: _189  and  _191
REMARK   74  A    between atoms: _191  and  _192
REMARK   75  A    between atoms: _195  and  _197
REMARK   76  A    between atoms: _197  and  _198
REMARK   77  A    between atoms: _197  and  _200
REMARK   78  A    between atoms: _200  and  _201
REMARK   79  A    between atoms: _206  and  _208
REMARK   80  A    between atoms: _208  and  _209
REMARK   81  A    between atoms: _212  and  _214
REMARK   82  A    between atoms: _214  and  _215
REMARK   83  A    between atoms: _214  and  _217
REMARK   84  A    between atoms: _220  and  _222
REMARK   85  A    between atoms: _222  and  _223
REMARK   86  A    between atoms: _222  and  _225
REMARK   87  A    between atoms: _225  and  _226
REMARK   88  A    between atoms: _231  and  _232
REMARK   89  A    between atoms: _234  and  _236
REMARK   90  A    between atoms: _236  and  _237
REMARK   91  A    between atoms: _236  and  _239
REMARK   92  A    between atoms: _239  and  _240
REMARK                            x       y       z     vdW  Elec       q    Type
REMARK                         _______ _______ _______ _____ _____    ______ ____
ROOT
ATOM      1  O   HOH     1       4.409  13.069  14.818  0.00  0.00    +0.000 OA
ENDROOT
TORSDOF 0
