REMARK  Name = ../refined-set-2016/1hfs/1hfs_pocket.pdb
REMARK  269 active torsions:
REMARK  status: ('A' for Active; 'I' for Inactive)
REMARK    1  A    between atoms: _1  and  _3
REMARK    2  A    between atoms: _3  and  _4
REMARK    3  A    between atoms: _3  and  _6
REMARK    4  A    between atoms: _6  and  _7
REMARK    5  A    between atoms: _11  and  ZN_724
REMARK    6  A    between atoms: _12  and  _14
REMARK    7  A    between atoms: _14  and  _15
REMARK    8  A    between atoms: _14  and  _17
REMARK    9  A    between atoms: _17  and  _18
REMARK   10  A    between atoms: _18  and  _20
REMARK   11  A    between atoms: _20  and  ZN_724
REMARK   12  A    between atoms: _21  and  _23
REMARK   13  A    between atoms: _23  and  _24
REMARK   14  A    between atoms: _23  and  _26
REMARK   15  A    between atoms: _26  and  _27
REMARK   16  A    between atoms: _33  and  _35
REMARK   17  A    between atoms: _35  and  _36
REMARK   18  A    between atoms: _35  and  _38
REMARK   19  A    between atoms: _38  and  _39
REMARK   20  A    between atoms: _44  and  _45
REMARK   21  A    between atoms: _48  and  _49
REMARK   22  A    between atoms: _54  and  _56
REMARK   23  A    between atoms: _56  and  _57
REMARK   24  A    between atoms: _56  and  _59
REMARK   25  A    between atoms: _59  and  _60
REMARK   26  A    between atoms: _66  and  _68
REMARK   27  A    between atoms: _68  and  _69
REMARK   28  A    between atoms: _68  and  _71
REMARK   29  A    between atoms: _71  and  _72
REMARK   30  A    between atoms: _76  and  _77
REMARK   31  A    between atoms: _82  and  _84
REMARK   32  A    between atoms: _89  and  _92
REMARK   33  A    between atoms: _92  and  _93
REMARK   34  A    between atoms: _100  and  _103
REMARK   35  A    between atoms: _101  and  _106
REMARK   36  A    between atoms: _106  and  _108
REMARK   37  A    between atoms: _108  and  _109
REMARK   38  A    between atoms: _108  and  _111
REMARK   39  A    between atoms: _111  and  _112
REMARK   40  A    between atoms: _115  and  _117
REMARK   41  A    between atoms: _117  and  _118
REMARK   42  A    between atoms: _121  and  _123
REMARK   43  A    between atoms: _123  and  _124
REMARK   44  A    between atoms: _123  and  _126
REMARK   45  A    between atoms: _126  and  _127
REMARK   46  A    between atoms: _131  and  ZN_724
REMARK   47  A    between atoms: _132  and  _134
REMARK   48  A    between atoms: _134  and  _135
REMARK   49  A    between atoms: _138  and  _140
REMARK   50  A    between atoms: _140  and  _141
REMARK   51  A    between atoms: _140  and  _143
REMARK   52  A    between atoms: _143  and  _144
REMARK   53  A    between atoms: _149  and  _150
REMARK   54  A    between atoms: _152  and  _154
REMARK   55  A    between atoms: _154  and  _155
REMARK   56  A    between atoms: _158  and  _160
REMARK   57  A    between atoms: _160  and  _161
REMARK   58  A    between atoms: _160  and  _163
REMARK   59  A    between atoms: _163  and  _164
REMARK   60  A    between atoms: _167  and  _169
REMARK   61  A    between atoms: _169  and  _170
REMARK   62  A    between atoms: _172  and  _174
REMARK   63  A    between atoms: _174  and  _175
REMARK   64  A    between atoms: _174  and  _177
REMARK   65  A    between atoms: _177  and  _178
REMARK   66  A    between atoms: _181  and  _183
REMARK   67  A    between atoms: _183  and  _184
REMARK   68  A    between atoms: _183  and  _186
REMARK   69  A    between atoms: _186  and  _187
REMARK   70  A    between atoms: _188  and  ZN_724
REMARK   71  A    between atoms: _192  and  _194
REMARK   72  A    between atoms: _194  and  _195
REMARK   73  A    between atoms: _194  and  _197
REMARK   74  A    between atoms: _197  and  _198
REMARK   75  A    between atoms: _201  and  _203
REMARK   76  A    between atoms: _203  and  _204
REMARK   77  A    between atoms: _203  and  _206
REMARK   78  A    between atoms: _206  and  _207
REMARK   79  A    between atoms: _207  and  _208
REMARK   80  A    between atoms: _211  and  _213
REMARK   81  A    between atoms: _213  and  _214
REMARK   82  A    between atoms: _213  and  _216
REMARK   83  A    between atoms: _216  and  _217
REMARK   84  A    between atoms: _227  and  _229
REMARK   85  A    between atoms: _229  and  _230
REMARK   86  A    between atoms: _232  and  _234
REMARK   87  A    between atoms: _234  and  _235
REMARK   88  A    between atoms: _234  and  _237
REMARK   89  A    between atoms: _237  and  _238
REMARK   90  A    between atoms: _241  and  _243
REMARK   91  A    between atoms: _243  and  _244
REMARK   92  A    between atoms: _243  and  _246
REMARK   93  A    between atoms: _246  and  _247
REMARK   94  A    between atoms: _252  and  _254
REMARK   95  A    between atoms: _254  and  _255
REMARK   96  A    between atoms: _254  and  _257
REMARK   97  A    between atoms: _257  and  _258
REMARK   98  A    between atoms: _261  and  _263
REMARK   99  A    between atoms: _263  and  _264
REMARK  100  A    between atoms: _263  and  _266
REMARK  101  A    between atoms: _266  and  _267
REMARK  102  A    between atoms: _273  and  _275
REMARK  103  A    between atoms: _275  and  _276
REMARK  104  A    between atoms: _275  and  _278
REMARK  105  A    between atoms: _278  and  _279
REMARK  106  A    between atoms: _282  and  _284
REMARK  107  A    between atoms: _284  and  _285
REMARK  108  A    between atoms: _284  and  _287
REMARK  109  A    between atoms: _290  and  _292
REMARK  110  A    between atoms: _292  and  _293
REMARK  111  A    between atoms: _296  and  _298
REMARK  112  A    between atoms: _298  and  _299
REMARK  113  A    between atoms: _302  and  _304
REMARK  114  A    between atoms: _315  and  _318
REMARK  115  A    between atoms: _318  and  _319
REMARK  116  A    between atoms: _319  and  _320
REMARK  117  A    between atoms: _325  and  _328
REMARK  118  A    between atoms: _328  and  _329
REMARK  119  A    between atoms: _339  and  _340
REMARK  120  A    between atoms: _348  and  _350
REMARK  121  A    between atoms: _350  and  _351
REMARK  122  A    between atoms: _350  and  _353
REMARK  123  A    between atoms: _353  and  _354
REMARK  124  A    between atoms: _356  and  _358
REMARK  125  A    between atoms: _358  and  _359
REMARK  126  A    between atoms: _358  and  _361
REMARK  127  A    between atoms: _361  and  _362
REMARK  128  A    between atoms: _366  and  ZN_723
REMARK  129  A    between atoms: _367  and  _369
REMARK  130  A    between atoms: _369  and  _370
REMARK  131  A    between atoms: _369  and  _372
REMARK  132  A    between atoms: _372  and  _373
REMARK  133  A    between atoms: _375  and  _377
REMARK  134  A    between atoms: _377  and  _378
REMARK  135  A    between atoms: _377  and  _380
REMARK  136  A    between atoms: _380  and  _381
REMARK  137  A    between atoms: _386  and  _388
REMARK  138  A    between atoms: _388  and  _389
REMARK  139  A    between atoms: _388  and  _391
REMARK  140  A    between atoms: _391  and  _392
REMARK  141  A    between atoms: _395  and  _397
REMARK  142  A    between atoms: _397  and  _398
REMARK  143  A    between atoms: _397  and  _400
REMARK  144  A    between atoms: _400  and  _401
REMARK  145  A    between atoms: _401  and  _402
REMARK  146  A    between atoms: _405  and  _407
REMARK  147  A    between atoms: _407  and  _408
REMARK  148  A    between atoms: _411  and  _413
REMARK  149  A    between atoms: _413  and  _414
REMARK  150  A    between atoms: _413  and  _416
REMARK  151  A    between atoms: _416  and  _417
REMARK  152  A    between atoms: _420  and  _422
REMARK  153  A    between atoms: _422  and  _423
REMARK  154  A    between atoms: _422  and  _425
REMARK  155  A    between atoms: _425  and  _426
REMARK  156  A    between atoms: _426  and  _427
REMARK  157  A    between atoms: _429  and  _431
REMARK  158  A    between atoms: _431  and  _432
REMARK  159  A    between atoms: _431  and  _434
REMARK  160  A    between atoms: _434  and  _435
REMARK  161  A    between atoms: _440  and  _441
REMARK  162  A    between atoms: _444  and  _445
REMARK  163  A    between atoms: _450  and  _452
REMARK  164  A    between atoms: _452  and  _453
REMARK  165  A    between atoms: _452  and  _455
REMARK  166  A    between atoms: _455  and  _456
REMARK  167  A    between atoms: _459  and  _461
REMARK  168  A    between atoms: _461  and  _462
REMARK  169  A    between atoms: _461  and  _464
REMARK  170  A    between atoms: _464  and  _465
REMARK  171  A    between atoms: _470  and  _471
REMARK  172  A    between atoms: _473  and  _475
REMARK  173  A    between atoms: _475  and  _476
REMARK  174  A    between atoms: _475  and  _478
REMARK  175  A    between atoms: _478  and  _479
REMARK  176  A    between atoms: _484  and  _486
REMARK  177  A    between atoms: _486  and  _487
REMARK  178  A    between atoms: _486  and  _489
REMARK  179  A    between atoms: _489  and  _490
REMARK  180  A    between atoms: _492  and  _494
REMARK  181  A    between atoms: _494  and  _495
REMARK  182  A    between atoms: _494  and  _497
REMARK  183  A    between atoms: _497  and  _498
REMARK  184  A    between atoms: _501  and  _503
REMARK  185  A    between atoms: _503  and  _504
REMARK  186  A    between atoms: _503  and  _506
REMARK  187  A    between atoms: _506  and  _507
REMARK  188  A    between atoms: _510  and  _512
REMARK  189  A    between atoms: _512  and  _513
REMARK  190  A    between atoms: _512  and  _515
REMARK  191  A    between atoms: _515  and  _516
REMARK  192  A    between atoms: _519  and  _521
REMARK  193  A    between atoms: _521  and  _522
REMARK  194  A    between atoms: _521  and  _524
REMARK  195  A    between atoms: _524  and  _525
REMARK  196  A    between atoms: _528  and  _530
REMARK  197  A    between atoms: _530  and  _531
REMARK  198  A    between atoms: _530  and  _533
REMARK  199  A    between atoms: _533  and  _534
REMARK  200  A    between atoms: _534  and  _535
REMARK  201  A    between atoms: _535  and  _536
REMARK  202  A    between atoms: _545  and  _547
REMARK  203  A    between atoms: _547  and  _548
REMARK  204  A    between atoms: _547  and  _550
REMARK  205  A    between atoms: _550  and  _551
REMARK  206  A    between atoms: _557  and  _559
REMARK  207  A    between atoms: _559  and  _560
REMARK  208  A    between atoms: _559  and  _562
REMARK  209  A    between atoms: _562  and  _563
REMARK  210  A    between atoms: _563  and  _564
REMARK  211  A    between atoms: _564  and  _565
REMARK  212  A    between atoms: _574  and  _576
REMARK  213  A    between atoms: _576  and  _577
REMARK  214  A    between atoms: _576  and  _579
REMARK  215  A    between atoms: _579  and  _580
REMARK  216  A    between atoms: _582  and  _584
REMARK  217  A    between atoms: _584  and  _585
REMARK  218  A    between atoms: _584  and  _587
REMARK  219  A    between atoms: _587  and  _588
REMARK  220  A    between atoms: _591  and  _593
REMARK  221  A    between atoms: _593  and  _594
REMARK  222  A    between atoms: _593  and  _596
REMARK  223  A    between atoms: _596  and  _597
REMARK  224  A    between atoms: _601  and  _602
REMARK  225  A    between atoms: _607  and  _609
REMARK  226  A    between atoms: _609  and  _610
REMARK  227  A    between atoms: _609  and  _612
REMARK  228  A    between atoms: _612  and  _613
REMARK  229  A    between atoms: _618  and  _620
REMARK  230  A    between atoms: _620  and  _621
REMARK  231  A    between atoms: _620  and  _623
REMARK  232  A    between atoms: _623  and  _624
REMARK  233  A    between atoms: _627  and  _629
REMARK  234  A    between atoms: _629  and  _630
REMARK  235  A    between atoms: _629  and  _632
REMARK  236  A    between atoms: _632  and  _633
REMARK  237  A    between atoms: _639  and  _641
REMARK  238  A    between atoms: _641  and  _642
REMARK  239  A    between atoms: _641  and  _644
REMARK  240  A    between atoms: _644  and  _645
REMARK  241  A    between atoms: _650  and  _652
REMARK  242  A    between atoms: _652  and  _653
REMARK  243  A    between atoms: _652  and  _655
REMARK  244  A    between atoms: _655  and  _656
REMARK  245  A    between atoms: _658  and  _660
REMARK  246  A    between atoms: _660  and  _661
REMARK  247  A    between atoms: _664  and  _666
REMARK  248  A    between atoms: _666  and  _667
REMARK  249  A    between atoms: _666  and  _669
REMARK  250  A    between atoms: _669  and  _670
REMARK  251  A    between atoms: _675  and  _677
REMARK  252  A    between atoms: _677  and  _678
REMARK  253  A    between atoms: _677  and  _680
REMARK  254  A    between atoms: _680  and  _681
REMARK  255  A    between atoms: _684  and  _686
REMARK  256  A    between atoms: _686  and  _687
REMARK  257  A    between atoms: _686  and  _689
REMARK  258  A    between atoms: _689  and  _690
REMARK  259  A    between atoms: _690  and  _691
REMARK  260  A    between atoms: _693  and  _695
REMARK  261  A    between atoms: _695  and  _696
REMARK  262  A    between atoms: _695  and  _698
REMARK  263  A    between atoms: _698  and  _699
REMARK  264  A    between atoms: _704  and  _705
REMARK  265  A    between atoms: _708  and  _709
REMARK  266  A    between atoms: _714  and  _716
REMARK  267  A    between atoms: _716  and  _717
REMARK  268  A    between atoms: _716  and  _719
REMARK  269  A    between atoms: _719  and  _720
REMARK                            x       y       z     vdW  Elec       q    Type
REMARK                         _______ _______ _______ _____ _____    ______ ____
ROOT
ATOM      1 ZN   UNK A   3      25.083  33.866  16.743  0.00  0.00    +0.000 Zn
ENDROOT
BRANCH   1   2
ATOM      2  N   UNK A   3      24.264  32.307  17.710  0.00  0.00    +0.000 N 
ATOM      3  C   UNK A   3      24.830  31.197  18.295  0.00  0.00    +0.000 A 
ATOM      4  C   UNK A   3      23.846  30.379  18.750  0.00  0.00    +0.000 A 
ATOM      5  N   UNK A   3      22.660  30.988  18.446  0.00  0.00    +0.000 NA
ATOM      6  C   UNK A   3      22.956  32.136  17.825  0.00  0.00    +0.000 A 
BRANCH   3   7
ATOM      7  C   UNK A   3      26.314  31.029  18.387  0.00  0.00    +0.000 C 
BRANCH   7   8
ATOM      8  C   UNK A   3      26.766  30.037  19.468  0.00  0.00    +0.000 C 
BRANCH   8   9
ATOM      9  C   UNK A   3      28.281  30.044  19.544  0.00  0.00    +0.000 C 
ATOM     10  O   UNK A   1      28.870  30.971  20.103  0.00  0.00    +0.000 OA
ENDBRANCH   8   9
BRANCH   8  11
ATOM     11  N   UNK A   3      26.231  30.411  20.776  0.00  0.00    +0.000 NA
ATOM     12  H   UNK A   1      26.418  31.367  21.140  0.00  0.00    +0.000 HD
ENDBRANCH   8  11
ENDBRANCH   7   8
ENDBRANCH   3   7
ENDBRANCH   1   2
BRANCH   1  15
ATOM     13  C   UNK A   3      25.554  32.230  13.096  0.00  0.00    +0.000 A 
ATOM     14  C   UNK A   3      24.960  32.334  14.312  0.00  0.00    +0.000 A 
ATOM     15  N   UNK A   3      25.618  33.305  15.081  0.00  0.00    +0.000 N 
ATOM     16  C   UNK A   3      26.590  33.753  14.300  0.00  0.00    +0.000 A 
ATOM     17  N   UNK A   3      26.586  33.139  13.110  0.00  0.00    +0.000 NA
BRANCH  13  18
ATOM     18  C   UNK A   3      25.227  31.344  11.932  0.00  0.00    +0.000 C 
BRANCH  18  19
ATOM     19  C   UNK A   3      24.398  32.031  10.842  0.00  0.00    +0.000 C 
BRANCH  19  20
ATOM     20  N   UNK A   3      25.097  33.224  10.390  0.00  0.00    +0.000 NA
ATOM     21  H   UNK A   1      25.091  34.075  10.988  0.00  0.00    +0.000 HD
ENDBRANCH  19  20
BRANCH  19  22
ATOM     22  C   UNK A   3      22.952  32.194  11.312  0.00  0.00    +0.000 C 
ATOM     23  O   UNK A   1      22.513  31.496  12.224  0.00  0.00    +0.000 OA
ENDBRANCH  19  22
ENDBRANCH  18  19
ENDBRANCH  13  18
ENDBRANCH   1  15
BRANCH   1  24
ATOM     24  N   UNK A   3      26.256  34.691  17.792  0.00  0.00    +0.000 N 
ATOM     25  C   UNK A   3      26.570  34.629  19.172  0.00  0.00    +0.000 A 
ATOM     26  C   UNK A   3      27.604  35.468  19.442  0.00  0.00    +0.000 A 
ATOM     27  N   UNK A   3      27.934  36.044  18.234  0.00  0.00    +0.000 NA
ATOM     28  C   UNK A   3      27.117  35.563  17.292  0.00  0.00    +0.000 A 
BRANCH  26  29
ATOM     29  C   UNK A   3      28.260  35.843  20.743  0.00  0.00    +0.000 C 
BRANCH  29  30
ATOM     30  C   UNK A   3      28.588  34.663  21.695  0.00  0.00    +0.000 C 
BRANCH  30  31
ATOM     31  N   UNK A   3      29.474  33.662  21.111  0.00  0.00    +0.000 N 
ATOM     32  C   PHE A   2      30.791  33.843  21.057  0.00  0.00    +0.000 C 
ATOM     33  O   PHE A   2      31.342  34.897  21.392  0.00  0.00    +0.000 OA
ATOM     34  H   UNK A   3      29.066  32.785  20.728  0.00  0.00    +0.000 HD
BRANCH  32  35
ATOM     35  CA  PHE A   2      31.609  32.692  20.495  0.00  0.00    +0.000 C 
ATOM     36  CB  PHE A   2      31.573  31.512  21.472  0.00  0.00    +0.000 C 
BRANCH  35  37
ATOM     37  N   PHE A   2      32.983  33.146  20.335  0.00  0.00    +0.000 N 
ATOM     38  H   PHE A   2      33.249  34.085  20.693  0.00  0.00    +0.000 HD
ATOM     39  C   UNK A   1      33.904  32.398  19.747  0.00  0.00    +0.000 C 
ATOM     40  O   UNK A   1      33.665  31.284  19.281  0.00  0.00    +0.000 OA
BRANCH  39  41
ATOM     41  C   UNK A   1      35.308  32.990  19.671  0.00  0.00    +0.000 C 
BRANCH  41  42
ATOM     42  N   UNK A   1      35.312  34.449  19.615  0.00  0.00    +0.000 NA
ATOM     43  H   UNK A   1      35.326  34.983  20.508  0.00  0.00    +0.000 HD
BRANCH  42  44
ATOM     44  C   UNK A   0      35.299  35.123  18.469  0.00  0.00    +0.000 C 
ATOM     45  C   UNK A   0      35.331  36.659  18.582  0.00  0.00    +0.000 C 
ATOM     46  N   UNK A   0      36.467  37.191  17.820  0.00  0.00    +0.000 N 
ATOM     47  C   UNK A   0      37.722  36.961  18.204  0.00  0.00    +0.000 C 
ATOM     48  O   UNK A   0      37.990  36.308  19.212  0.00  0.00    +0.000 OA
ATOM     49  C   UNK A   0      38.867  37.527  17.355  0.00  0.00    +0.000 C 
ATOM     50  N   UNK A   0      39.771  36.453  16.935  0.00  0.00    +0.000 N 
ATOM     51  H   UNK A   0      40.784  36.552  17.150  0.00  0.00    +0.000 HD
ATOM     52  C   UNK A   0      39.368  35.356  16.293  0.00  0.00    +0.000 C 
ATOM     53  O   UNK A   0      38.186  35.141  15.971  0.00  0.00    +0.000 OA
ATOM     54 CA   UNK A   0      36.235  34.061  15.272  0.00  0.00    +0.000 Ca
ATOM     55  C   UNK A   0      40.460  34.354  15.953  0.00  0.00    +0.000 C 
ATOM     56  H   UNK A   0      36.289  37.757  16.966  0.00  0.00    +0.000 HD
ATOM     57  O   UNK A   0      35.301  34.566  17.355  0.00  0.00    +0.000 OA
BRANCH  55  58
ATOM     58  N   UNK A   0      40.074  33.319  15.004  0.00  0.00    +0.000 N 
ATOM     59  H   UNK A   0      39.852  32.364  15.351  0.00  0.00    +0.000 HD
ATOM     60  C   UNK A   0      40.001  33.576  13.701  0.00  0.00    +0.000 C 
ATOM     61  O   UNK A   0      40.240  34.686  13.224  0.00  0.00    +0.000 OA
BRANCH  60  62
ATOM     62  C   UNK A   0      39.580  32.414  12.798  0.00  0.00    +0.000 C 
ATOM     63  C   UNK A   0      40.761  31.873  11.990  0.00  0.00    +0.000 C 
ATOM     64  C   UNK A   0      40.116  31.381  10.728  0.00  0.00    +0.000 C 
ATOM     65  C   UNK A   0      39.154  32.487  10.417  0.00  0.00    +0.000 C 
ATOM     66  N   UNK A   0      38.633  32.822  11.755  0.00  0.00    +0.000 NA
ENDBRANCH  60  62
ENDBRANCH  55  58
BRANCH  45  67
ATOM     67  C   UNK A   0      33.987  37.260  18.098  0.00  0.00    +0.000 C 
ATOM     68  C   UNK A   0      32.816  36.612  18.829  0.00  0.00    +0.000 C 
ATOM     69  C   UNK A   0      33.973  38.759  18.335  0.00  0.00    +0.000 C 
ENDBRANCH  45  67
BRANCH  49  70
ATOM     70  C   UNK A   0      38.367  38.324  16.143  0.00  0.00    +0.000 C 
BRANCH  70  71
ATOM     71  C   UNK A   0      39.470  39.143  15.483  0.00  0.00    +0.000 C 
ATOM     72  N   UNK A   0      40.255  39.840  16.288  0.00  0.00    +0.000 N 
ATOM     73  H   UNK A   0      40.102  39.812  17.316  0.00  0.00    +0.000 HD
ATOM     74  H   UNK A   0      41.025  40.416  15.893  0.00  0.00    +0.000 HD
ATOM     75  O   UNK A   0      39.610  39.143  14.261  0.00  0.00    +0.000 OA
ENDBRANCH  70  71
ENDBRANCH  49  70
ENDBRANCH  42  44
ENDBRANCH  41  42
BRANCH  41  76
ATOM     76  C   UNK A   1      36.116  32.507  20.878  0.00  0.00    +0.000 C 
BRANCH  76  77
ATOM     77  C   UNK A   1      37.561  32.991  21.002  0.00  0.00    +0.000 C 
ATOM     78  C   UNK A   1      38.178  32.418  22.264  0.00  0.00    +0.000 C 
ATOM     79  C   UNK A   1      38.361  32.578  19.781  0.00  0.00    +0.000 C 
ENDBRANCH  76  77
ENDBRANCH  41  76
ENDBRANCH  39  41
ENDBRANCH  35  37
ENDBRANCH  32  35
ENDBRANCH  30  31
BRANCH  30  80
ATOM     80  C   UNK A   3      27.345  34.007  22.274  0.00  0.00    +0.000 C 
ATOM     81  N   PRO A   4      26.869  34.542  23.390  0.00  0.00    +0.000 N 
ATOM     82  H   PRO A   4      27.350  35.367  23.803  0.00  0.00    +0.000 HD
ATOM     83  O   UNK A   3      26.881  32.986  21.769  0.00  0.00    +0.000 OA
BRANCH  81  84
ATOM     84  CA  PRO A   4      25.691  34.003  24.050  0.00  0.00    +0.000 C 
ATOM     85  CB  PRO A   4      26.088  33.193  25.279  0.00  0.00    +0.000 C 
BRANCH  84  86
ATOM     86  C   PRO A   4      24.769  35.141  24.435  0.00  0.00    +0.000 C 
ATOM     87  O   PRO A   4      25.221  36.249  24.724  0.00  0.00    +0.000 OA
ATOM     88  N   PHE A   5      23.474  34.858  24.438  0.00  0.00    +0.000 N 
ATOM     89  H   PHE A   5      23.170  33.893  24.198  0.00  0.00    +0.000 HD
BRANCH  88  90
ATOM     90  CA  PHE A   5      22.464  35.851  24.765  0.00  0.00    +0.000 C 
BRANCH  90  91
ATOM     91  C   PHE A   5      21.946  35.725  26.192  0.00  0.00    +0.000 C 
ATOM     92  N   ASP A   6      21.618  36.864  26.788  0.00  0.00    +0.000 N 
ATOM     93  H   ASP A   6      21.735  37.755  26.264  0.00  0.00    +0.000 HD
ATOM     94  O   PHE A   5      21.839  34.624  26.734  0.00  0.00    +0.000 OA
BRANCH  92  95
ATOM     95  CA  ASP A   6      21.099  36.915  28.151  0.00  0.00    +0.000 C 
ATOM     96  CB  ASP A   6      20.940  38.372  28.586  0.00  0.00    +0.000 C 
BRANCH  95  97
ATOM     97  C   ASP A   6      19.758  36.175  28.243  0.00  0.00    +0.000 C 
ATOM     98  O   ASP A   6      19.101  35.936  27.222  0.00  0.00    +0.000 OA
ENDBRANCH  95  97
ENDBRANCH  92  95
ENDBRANCH  90  91
BRANCH  90  99
ATOM     99  CB  PHE A   5      21.303  35.746  23.774  0.00  0.00    +0.000 C 
BRANCH  99 100
ATOM    100  CG  PHE A   5      21.709  35.989  22.336  0.00  0.00    +0.000 A 
ATOM    101  CD2 PHE A   5      21.643  37.268  21.783  0.00  0.00    +0.000 A 
ATOM    102  CE2 PHE A   5      21.998  37.500  20.451  0.00  0.00    +0.000 A 
ATOM    103  CZ  PHE A   5      22.426  36.442  19.664  0.00  0.00    +0.000 A 
ATOM    104  CE1 PHE A   5      22.503  35.163  20.191  0.00  0.00    +0.000 A 
ATOM    105  CD1 PHE A   5      22.147  34.941  21.523  0.00  0.00    +0.000 A 
BRANCH 103 106
ATOM    106  OH  PHE A   5      22.760  36.668  18.350  0.00  0.00    +0.000 OA
ATOM    107  HH  PHE A   5      23.043  35.817  17.931  0.00  0.00    +0.000 HD
ENDBRANCH 103 106
ENDBRANCH  99 100
ENDBRANCH  90  99
ENDBRANCH  88  90
ENDBRANCH  84  86
ENDBRANCH  81  84
ENDBRANCH  30  80
ENDBRANCH  29  30
ENDBRANCH  26  29
ENDBRANCH   1  24
BRANCH   1 108
ATOM    108  O   UNK A   3      23.406  34.900  16.421  0.00  0.00    +0.000 OA
BRANCH 108 109
ATOM    109  C   UNK A   3      23.046  35.411  15.341  0.00  0.00    +0.000 C 
ATOM    110  O   UNK A   3      23.858  35.732  14.456  0.00  0.00    +0.000 OA
BRANCH 109 111
ATOM    111  C   UNK A   3      21.557  35.651  15.141  0.00  0.00    +0.000 C 
BRANCH 111 112
ATOM    112  C   UNK A   3      21.175  36.042  13.691  0.00  0.00    +0.000 C 
BRANCH 112 113
ATOM    113  C   UNK A   3      21.784  37.367  13.243  0.00  0.00    +0.000 C 
ATOM    114  N   PHE A   2      21.642  38.399  14.066  0.00  0.00    +0.000 N 
ATOM    115  H   PHE A   2      21.162  38.252  14.977  0.00  0.00    +0.000 HD
ATOM    116  O   UNK A   3      22.389  37.438  12.170  0.00  0.00    +0.000 OA
BRANCH 114 117
ATOM    117  CA  PHE A   2      22.137  39.736  13.738  0.00  0.00    +0.000 C 
BRANCH 117 118
ATOM    118  C   PHE A   2      23.660  39.907  13.784  0.00  0.00    +0.000 C 
ATOM    119  N   UNK A   3      24.361  38.980  14.435  0.00  0.00    +0.000 N 
ATOM    120  H   UNK A   3      23.862  38.163  14.842  0.00  0.00    +0.000 HD
ATOM    121  O   PHE A   2      24.192  40.849  13.200  0.00  0.00    +0.000 OA
BRANCH 119 122
ATOM    122  C   UNK A   3      25.814  39.077  14.595  0.00  0.00    +0.000 C 
BRANCH 122 123
ATOM    123  C   UNK A   3      26.625  37.965  13.936  0.00  0.00    +0.000 C 
ATOM    124  O   UNK A   3      26.880  36.919  14.541  0.00  0.00    +0.000 OA
ATOM    125  N   PRO A   4      27.054  38.179  12.684  0.00  0.00    +0.000 N 
ATOM    126  CA  PRO A   4      27.840  37.168  11.971  0.00  0.00    +0.000 C 
ATOM    127  CB  PRO A   4      28.030  37.803  10.590  0.00  0.00    +0.000 C 
ATOM    128  CG  PRO A   4      26.856  38.734  10.460  0.00  0.00    +0.000 C 
ATOM    129  CD  PRO A   4      26.794  39.344  11.822  0.00  0.00    +0.000 C 
BRANCH 126 130
ATOM    130  C   PRO A   4      29.193  36.931  12.640  0.00  0.00    +0.000 C 
ATOM    131  O   PRO A   4      29.746  37.841  13.268  0.00  0.00    +0.000 OA
ATOM    132  N   PHE A   5      29.698  35.703  12.557  0.00  0.00    +0.000 N 
ATOM    133  H   PHE A   5      29.153  34.951  12.089  0.00  0.00    +0.000 HD
BRANCH 132 134
ATOM    134  CA  PHE A   5      31.008  35.405  13.117  0.00  0.00    +0.000 C 
BRANCH 134 135
ATOM    135  C   PHE A   5      32.074  35.993  12.183  0.00  0.00    +0.000 C 
ATOM    136  N   ASP A   6      33.301  36.091  12.675  0.00  0.00    +0.000 N 
ATOM    137  H   ASP A   6      33.497  35.694  13.616  0.00  0.00    +0.000 HD
ATOM    138  O   PHE A   5      31.782  36.339  11.035  0.00  0.00    +0.000 OA
BRANCH 136 139
ATOM    139  CA  ASP A   6      34.388  36.737  11.943  0.00  0.00    +0.000 C 
BRANCH 139 140
ATOM    140  C   ASP A   6      35.592  35.917  11.488  0.00  0.00    +0.000 C 
ATOM    141  O   ASP A   6      36.678  36.476  11.322  0.00  0.00    +0.000 OA
ENDBRANCH 139 140
BRANCH 139 142
ATOM    142  CB  ASP A   6      34.895  37.898  12.808  0.00  0.00    +0.000 C 
BRANCH 142 143
ATOM    143  CG  ASP A   6      35.234  37.460  14.237  0.00  0.00    +0.000 C 
ATOM    144  OD2 ASP A   6      35.367  38.316  15.127  0.00  0.00    +0.000 OA
ATOM    145  OD1 ASP A   6      35.358  36.249  14.484  0.00  0.00    +0.000 OA
ENDBRANCH 142 143
ENDBRANCH 139 142
ENDBRANCH 136 139
ENDBRANCH 134 135
BRANCH 134 146
ATOM    146  CB  PHE A   5      31.186  33.907  13.393  0.00  0.00    +0.000 C 
BRANCH 146 147
ATOM    147  CG  PHE A   5      30.580  33.463  14.706  0.00  0.00    +0.000 A 
ATOM    148  CD2 PHE A   5      30.837  34.175  15.881  0.00  0.00    +0.000 A 
ATOM    149  CE2 PHE A   5      30.261  33.791  17.094  0.00  0.00    +0.000 A 
ATOM    150  CZ  PHE A   5      29.418  32.680  17.141  0.00  0.00    +0.000 A 
ATOM    151  CE1 PHE A   5      29.155  31.961  15.974  0.00  0.00    +0.000 A 
ATOM    152  CD1 PHE A   5      29.737  32.355  14.766  0.00  0.00    +0.000 A 
ENDBRANCH 146 147
ENDBRANCH 134 146
ENDBRANCH 132 134
ENDBRANCH 126 130
ENDBRANCH 122 123
BRANCH 122 153
ATOM    153  C   UNK A   3      26.152  39.157  16.085  0.00  0.00    +0.000 C 
BRANCH 153 154
ATOM    154  C   UNK A   3      25.385  40.238  16.805  0.00  0.00    +0.000 A 
ATOM    155  C   UNK A   3      24.148  39.965  17.395  0.00  0.00    +0.000 A 
ATOM    156  C   UNK A   3      23.423  40.963  18.040  0.00  0.00    +0.000 A 
ATOM    157  C   UNK A   3      23.937  42.249  18.098  0.00  0.00    +0.000 A 
ATOM    158  C   UNK A   3      25.165  42.542  17.522  0.00  0.00    +0.000 A 
ATOM    159  C   UNK A   3      25.881  41.538  16.880  0.00  0.00    +0.000 A 
BRANCH 157 160
ATOM    160  O   UNK A   3      23.219  43.244  18.719  0.00  0.00    +0.000 OA
ATOM    161  H   UNK A   3      23.725  44.094  18.671  0.00  0.00    +0.000 HD
ENDBRANCH 157 160
ENDBRANCH 153 154
ENDBRANCH 122 153
ENDBRANCH 119 122
ENDBRANCH 117 118
BRANCH 117 162
ATOM    162  CB  PHE A   2      21.465  40.744  14.681  0.00  0.00    +0.000 C 
BRANCH 162 163
ATOM    163  CG  PHE A   2      21.539  42.172  14.218  0.00  0.00    +0.000 A 
ATOM    164  CD2 PHE A   2      22.369  43.084  14.863  0.00  0.00    +0.000 A 
ATOM    165  CE2 PHE A   2      22.408  44.421  14.470  0.00  0.00    +0.000 A 
ATOM    166  CZ  PHE A   2      21.609  44.855  13.420  0.00  0.00    +0.000 A 
ATOM    167  CE1 PHE A   2      20.776  43.954  12.765  0.00  0.00    +0.000 A 
ATOM    168  CD1 PHE A   2      20.745  42.619  13.166  0.00  0.00    +0.000 A 
ENDBRANCH 162 163
ENDBRANCH 117 162
ENDBRANCH 114 117
ENDBRANCH 112 113
BRANCH 112 169
ATOM    169  N   UNK A   3      21.475  34.994  12.722  0.00  0.00    +0.000 NA
ATOM    170  H   UNK A   1      22.462  34.759  12.496  0.00  0.00    +0.000 HD
ENDBRANCH 112 169
ENDBRANCH 111 112
ENDBRANCH 109 111
ENDBRANCH 108 109
ENDBRANCH   1 108
TORSDOF 60
REMARK  Name = ../refined-set-2016/1hfs/1hfs_pocket.pdb
REMARK  269 active torsions:
REMARK  status: ('A' for Active; 'I' for Inactive)
REMARK    1  A    between atoms: _1  and  _3
REMARK    2  A    between atoms: _3  and  _4
REMARK    3  A    between atoms: _3  and  _6
REMARK    4  A    between atoms: _6  and  _7
REMARK    5  A    between atoms: _11  and  ZN_724
REMARK    6  A    between atoms: _12  and  _14
REMARK    7  A    between atoms: _14  and  _15
REMARK    8  A    between atoms: _14  and  _17
REMARK    9  A    between atoms: _17  and  _18
REMARK   10  A    between atoms: _18  and  _20
REMARK   11  A    between atoms: _20  and  ZN_724
REMARK   12  A    between atoms: _21  and  _23
REMARK   13  A    between atoms: _23  and  _24
REMARK   14  A    between atoms: _23  and  _26
REMARK   15  A    between atoms: _26  and  _27
REMARK   16  A    between atoms: _33  and  _35
REMARK   17  A    between atoms: _35  and  _36
REMARK   18  A    between atoms: _35  and  _38
REMARK   19  A    between atoms: _38  and  _39
REMARK   20  A    between atoms: _44  and  _45
REMARK   21  A    between atoms: _48  and  _49
REMARK   22  A    between atoms: _54  and  _56
REMARK   23  A    between atoms: _56  and  _57
REMARK   24  A    between atoms: _56  and  _59
REMARK   25  A    between atoms: _59  and  _60
REMARK   26  A    between atoms: _66  and  _68
REMARK   27  A    between atoms: _68  and  _69
REMARK   28  A    between atoms: _68  and  _71
REMARK   29  A    between atoms: _71  and  _72
REMARK   30  A    between atoms: _76  and  _77
REMARK   31  A    between atoms: _82  and  _84
REMARK   32  A    between atoms: _89  and  _92
REMARK   33  A    between atoms: _92  and  _93
REMARK   34  A    between atoms: _100  and  _103
REMARK   35  A    between atoms: _101  and  _106
REMARK   36  A    between atoms: _106  and  _108
REMARK   37  A    between atoms: _108  and  _109
REMARK   38  A    between atoms: _108  and  _111
REMARK   39  A    between atoms: _111  and  _112
REMARK   40  A    between atoms: _115  and  _117
REMARK   41  A    between atoms: _117  and  _118
REMARK   42  A    between atoms: _121  and  _123
REMARK   43  A    between atoms: _123  and  _124
REMARK   44  A    between atoms: _123  and  _126
REMARK   45  A    between atoms: _126  and  _127
REMARK   46  A    between atoms: _131  and  ZN_724
REMARK   47  A    between atoms: _132  and  _134
REMARK   48  A    between atoms: _134  and  _135
REMARK   49  A    between atoms: _138  and  _140
REMARK   50  A    between atoms: _140  and  _141
REMARK   51  A    between atoms: _140  and  _143
REMARK   52  A    between atoms: _143  and  _144
REMARK   53  A    between atoms: _149  and  _150
REMARK   54  A    between atoms: _152  and  _154
REMARK   55  A    between atoms: _154  and  _155
REMARK   56  A    between atoms: _158  and  _160
REMARK   57  A    between atoms: _160  and  _161
REMARK   58  A    between atoms: _160  and  _163
REMARK   59  A    between atoms: _163  and  _164
REMARK   60  A    between atoms: _167  and  _169
REMARK   61  A    between atoms: _169  and  _170
REMARK   62  A    between atoms: _172  and  _174
REMARK   63  A    between atoms: _174  and  _175
REMARK   64  A    between atoms: _174  and  _177
REMARK   65  A    between atoms: _177  and  _178
REMARK   66  A    between atoms: _181  and  _183
REMARK   67  A    between atoms: _183  and  _184
REMARK   68  A    between atoms: _183  and  _186
REMARK   69  A    between atoms: _186  and  _187
REMARK   70  A    between atoms: _188  and  ZN_724
REMARK   71  A    between atoms: _192  and  _194
REMARK   72  A    between atoms: _194  and  _195
REMARK   73  A    between atoms: _194  and  _197
REMARK   74  A    between atoms: _197  and  _198
REMARK   75  A    between atoms: _201  and  _203
REMARK   76  A    between atoms: _203  and  _204
REMARK   77  A    between atoms: _203  and  _206
REMARK   78  A    between atoms: _206  and  _207
REMARK   79  A    between atoms: _207  and  _208
REMARK   80  A    between atoms: _211  and  _213
REMARK   81  A    between atoms: _213  and  _214
REMARK   82  A    between atoms: _213  and  _216
REMARK   83  A    between atoms: _216  and  _217
REMARK   84  A    between atoms: _227  and  _229
REMARK   85  A    between atoms: _229  and  _230
REMARK   86  A    between atoms: _232  and  _234
REMARK   87  A    between atoms: _234  and  _235
REMARK   88  A    between atoms: _234  and  _237
REMARK   89  A    between atoms: _237  and  _238
REMARK   90  A    between atoms: _241  and  _243
REMARK   91  A    between atoms: _243  and  _244
REMARK   92  A    between atoms: _243  and  _246
REMARK   93  A    between atoms: _246  and  _247
REMARK   94  A    between atoms: _252  and  _254
REMARK   95  A    between atoms: _254  and  _255
REMARK   96  A    between atoms: _254  and  _257
REMARK   97  A    between atoms: _257  and  _258
REMARK   98  A    between atoms: _261  and  _263
REMARK   99  A    between atoms: _263  and  _264
REMARK  100  A    between atoms: _263  and  _266
REMARK  101  A    between atoms: _266  and  _267
REMARK  102  A    between atoms: _273  and  _275
REMARK  103  A    between atoms: _275  and  _276
REMARK  104  A    between atoms: _275  and  _278
REMARK  105  A    between atoms: _278  and  _279
REMARK  106  A    between atoms: _282  and  _284
REMARK  107  A    between atoms: _284  and  _285
REMARK  108  A    between atoms: _284  and  _287
REMARK  109  A    between atoms: _290  and  _292
REMARK  110  A    between atoms: _292  and  _293
REMARK  111  A    between atoms: _296  and  _298
REMARK  112  A    between atoms: _298  and  _299
REMARK  113  A    between atoms: _302  and  _304
REMARK  114  A    between atoms: _315  and  _318
REMARK  115  A    between atoms: _318  and  _319
REMARK  116  A    between atoms: _319  and  _320
REMARK  117  A    between atoms: _325  and  _328
REMARK  118  A    between atoms: _328  and  _329
REMARK  119  A    between atoms: _339  and  _340
REMARK  120  A    between atoms: _348  and  _350
REMARK  121  A    between atoms: _350  and  _351
REMARK  122  A    between atoms: _350  and  _353
REMARK  123  A    between atoms: _353  and  _354
REMARK  124  A    between atoms: _356  and  _358
REMARK  125  A    between atoms: _358  and  _359
REMARK  126  A    between atoms: _358  and  _361
REMARK  127  A    between atoms: _361  and  _362
REMARK  128  A    between atoms: _366  and  ZN_723
REMARK  129  A    between atoms: _367  and  _369
REMARK  130  A    between atoms: _369  and  _370
REMARK  131  A    between atoms: _369  and  _372
REMARK  132  A    between atoms: _372  and  _373
REMARK  133  A    between atoms: _375  and  _377
REMARK  134  A    between atoms: _377  and  _378
REMARK  135  A    between atoms: _377  and  _380
REMARK  136  A    between atoms: _380  and  _381
REMARK  137  A    between atoms: _386  and  _388
REMARK  138  A    between atoms: _388  and  _389
REMARK  139  A    between atoms: _388  and  _391
REMARK  140  A    between atoms: _391  and  _392
REMARK  141  A    between atoms: _395  and  _397
REMARK  142  A    between atoms: _397  and  _398
REMARK  143  A    between atoms: _397  and  _400
REMARK  144  A    between atoms: _400  and  _401
REMARK  145  A    between atoms: _401  and  _402
REMARK  146  A    between atoms: _405  and  _407
REMARK  147  A    between atoms: _407  and  _408
REMARK  148  A    between atoms: _411  and  _413
REMARK  149  A    between atoms: _413  and  _414
REMARK  150  A    between atoms: _413  and  _416
REMARK  151  A    between atoms: _416  and  _417
REMARK  152  A    between atoms: _420  and  _422
REMARK  153  A    between atoms: _422  and  _423
REMARK  154  A    between atoms: _422  and  _425
REMARK  155  A    between atoms: _425  and  _426
REMARK  156  A    between atoms: _426  and  _427
REMARK  157  A    between atoms: _429  and  _431
REMARK  158  A    between atoms: _431  and  _432
REMARK  159  A    between atoms: _431  and  _434
REMARK  160  A    between atoms: _434  and  _435
REMARK  161  A    between atoms: _440  and  _441
REMARK  162  A    between atoms: _444  and  _445
REMARK  163  A    between atoms: _450  and  _452
REMARK  164  A    between atoms: _452  and  _453
REMARK  165  A    between atoms: _452  and  _455
REMARK  166  A    between atoms: _455  and  _456
REMARK  167  A    between atoms: _459  and  _461
REMARK  168  A    between atoms: _461  and  _462
REMARK  169  A    between atoms: _461  and  _464
REMARK  170  A    between atoms: _464  and  _465
REMARK  171  A    between atoms: _470  and  _471
REMARK  172  A    between atoms: _473  and  _475
REMARK  173  A    between atoms: _475  and  _476
REMARK  174  A    between atoms: _475  and  _478
REMARK  175  A    between atoms: _478  and  _479
REMARK  176  A    between atoms: _484  and  _486
REMARK  177  A    between atoms: _486  and  _487
REMARK  178  A    between atoms: _486  and  _489
REMARK  179  A    between atoms: _489  and  _490
REMARK  180  A    between atoms: _492  and  _494
REMARK  181  A    between atoms: _494  and  _495
REMARK  182  A    between atoms: _494  and  _497
REMARK  183  A    between atoms: _497  and  _498
REMARK  184  A    between atoms: _501  and  _503
REMARK  185  A    between atoms: _503  and  _504
REMARK  186  A    between atoms: _503  and  _506
REMARK  187  A    between atoms: _506  and  _507
REMARK  188  A    between atoms: _510  and  _512
REMARK  189  A    between atoms: _512  and  _513
REMARK  190  A    between atoms: _512  and  _515
REMARK  191  A    between atoms: _515  and  _516
REMARK  192  A    between atoms: _519  and  _521
REMARK  193  A    between atoms: _521  and  _522
REMARK  194  A    between atoms: _521  and  _524
REMARK  195  A    between atoms: _524  and  _525
REMARK  196  A    between atoms: _528  and  _530
REMARK  197  A    between atoms: _530  and  _531
REMARK  198  A    between atoms: _530  and  _533
REMARK  199  A    between atoms: _533  and  _534
REMARK  200  A    between atoms: _534  and  _535
REMARK  201  A    between atoms: _535  and  _536
REMARK  202  A    between atoms: _545  and  _547
REMARK  203  A    between atoms: _547  and  _548
REMARK  204  A    between atoms: _547  and  _550
REMARK  205  A    between atoms: _550  and  _551
REMARK  206  A    between atoms: _557  and  _559
REMARK  207  A    between atoms: _559  and  _560
REMARK  208  A    between atoms: _559  and  _562
REMARK  209  A    between atoms: _562  and  _563
REMARK  210  A    between atoms: _563  and  _564
REMARK  211  A    between atoms: _564  and  _565
REMARK  212  A    between atoms: _574  and  _576
REMARK  213  A    between atoms: _576  and  _577
REMARK  214  A    between atoms: _576  and  _579
REMARK  215  A    between atoms: _579  and  _580
REMARK  216  A    between atoms: _582  and  _584
REMARK  217  A    between atoms: _584  and  _585
REMARK  218  A    between atoms: _584  and  _587
REMARK  219  A    between atoms: _587  and  _588
REMARK  220  A    between atoms: _591  and  _593
REMARK  221  A    between atoms: _593  and  _594
REMARK  222  A    between atoms: _593  and  _596
REMARK  223  A    between atoms: _596  and  _597
REMARK  224  A    between atoms: _601  and  _602
REMARK  225  A    between atoms: _607  and  _609
REMARK  226  A    between atoms: _609  and  _610
REMARK  227  A    between atoms: _609  and  _612
REMARK  228  A    between atoms: _612  and  _613
REMARK  229  A    between atoms: _618  and  _620
REMARK  230  A    between atoms: _620  and  _621
REMARK  231  A    between atoms: _620  and  _623
REMARK  232  A    between atoms: _623  and  _624
REMARK  233  A    between atoms: _627  and  _629
REMARK  234  A    between atoms: _629  and  _630
REMARK  235  A    between atoms: _629  and  _632
REMARK  236  A    between atoms: _632  and  _633
REMARK  237  A    between atoms: _639  and  _641
REMARK  238  A    between atoms: _641  and  _642
REMARK  239  A    between atoms: _641  and  _644
REMARK  240  A    between atoms: _644  and  _645
REMARK  241  A    between atoms: _650  and  _652
REMARK  242  A    between atoms: _652  and  _653
REMARK  243  A    between atoms: _652  and  _655
REMARK  244  A    between atoms: _655  and  _656
REMARK  245  A    between atoms: _658  and  _660
REMARK  246  A    between atoms: _660  and  _661
REMARK  247  A    between atoms: _664  and  _666
REMARK  248  A    between atoms: _666  and  _667
REMARK  249  A    between atoms: _666  and  _669
REMARK  250  A    between atoms: _669  and  _670
REMARK  251  A    between atoms: _675  and  _677
REMARK  252  A    between atoms: _677  and  _678
REMARK  253  A    between atoms: _677  and  _680
REMARK  254  A    between atoms: _680  and  _681
REMARK  255  A    between atoms: _684  and  _686
REMARK  256  A    between atoms: _686  and  _687
REMARK  257  A    between atoms: _686  and  _689
REMARK  258  A    between atoms: _689  and  _690
REMARK  259  A    between atoms: _690  and  _691
REMARK  260  A    between atoms: _693  and  _695
REMARK  261  A    between atoms: _695  and  _696
REMARK  262  A    between atoms: _695  and  _698
REMARK  263  A    between atoms: _698  and  _699
REMARK  264  A    between atoms: _704  and  _705
REMARK  265  A    between atoms: _708  and  _709
REMARK  266  A    between atoms: _714  and  _716
REMARK  267  A    between atoms: _716  and  _717
REMARK  268  A    between atoms: _716  and  _719
REMARK  269  A    between atoms: _719  and  _720
REMARK                            x       y       z     vdW  Elec       q    Type
REMARK                         _______ _______ _______ _____ _____    ______ ____
ROOT
ATOM      1  CA  ILE A   1      17.154  33.415  20.798  0.00  0.00    +0.133 C 
ENDROOT
BRANCH   1   2
ATOM      2  N   ILE A   1      15.703  33.421  20.921  0.00  0.00    -0.239 NA
ATOM      3  H   ILE A   1      15.152  34.143  20.414  0.00  0.00    +0.142 HD
ENDBRANCH   1   2
BRANCH   1   4
ATOM      4  C   ILE A   1      17.853  33.718  22.130  0.00  0.00    +0.224 C 
ATOM      5  O   ILE A   1      19.000  33.326  22.343  0.00  0.00    -0.287 OA
ENDBRANCH   1   4
BRANCH   1   6
ATOM      6  CB  ILE A   1      17.633  34.391  19.698  0.00  0.00    +0.023 C 
ATOM      7  CG2 ILE A   1      17.486  35.834  20.160  0.00  0.00    +0.002 C 
BRANCH   6   8
ATOM      8  CG1 ILE A   1      19.083  34.077  19.324  0.00  0.00    +0.002 C 
ATOM      9  CD1 ILE A   1      19.622  34.917  18.195  0.00  0.00    +0.000 C 
ENDBRANCH   6   8
ENDBRANCH   1   6
TORSDOF 4
REMARK  Name = ../refined-set-2016/1hfs/1hfs_pocket.pdb
REMARK  269 active torsions:
REMARK  status: ('A' for Active; 'I' for Inactive)
REMARK    1  A    between atoms: _1  and  _3
REMARK    2  A    between atoms: _3  and  _4
REMARK    3  A    between atoms: _3  and  _6
REMARK    4  A    between atoms: _6  and  _7
REMARK    5  A    between atoms: _11  and  ZN_724
REMARK    6  A    between atoms: _12  and  _14
REMARK    7  A    between atoms: _14  and  _15
REMARK    8  A    between atoms: _14  and  _17
REMARK    9  A    between atoms: _17  and  _18
REMARK   10  A    between atoms: _18  and  _20
REMARK   11  A    between atoms: _20  and  ZN_724
REMARK   12  A    between atoms: _21  and  _23
REMARK   13  A    between atoms: _23  and  _24
REMARK   14  A    between atoms: _23  and  _26
REMARK   15  A    between atoms: _26  and  _27
REMARK   16  A    between atoms: _33  and  _35
REMARK   17  A    between atoms: _35  and  _36
REMARK   18  A    between atoms: _35  and  _38
REMARK   19  A    between atoms: _38  and  _39
REMARK   20  A    between atoms: _44  and  _45
REMARK   21  A    between atoms: _48  and  _49
REMARK   22  A    between atoms: _54  and  _56
REMARK   23  A    between atoms: _56  and  _57
REMARK   24  A    between atoms: _56  and  _59
REMARK   25  A    between atoms: _59  and  _60
REMARK   26  A    between atoms: _66  and  _68
REMARK   27  A    between atoms: _68  and  _69
REMARK   28  A    between atoms: _68  and  _71
REMARK   29  A    between atoms: _71  and  _72
REMARK   30  A    between atoms: _76  and  _77
REMARK   31  A    between atoms: _82  and  _84
REMARK   32  A    between atoms: _89  and  _92
REMARK   33  A    between atoms: _92  and  _93
REMARK   34  A    between atoms: _100  and  _103
REMARK   35  A    between atoms: _101  and  _106
REMARK   36  A    between atoms: _106  and  _108
REMARK   37  A    between atoms: _108  and  _109
REMARK   38  A    between atoms: _108  and  _111
REMARK   39  A    between atoms: _111  and  _112
REMARK   40  A    between atoms: _115  and  _117
REMARK   41  A    between atoms: _117  and  _118
REMARK   42  A    between atoms: _121  and  _123
REMARK   43  A    between atoms: _123  and  _124
REMARK   44  A    between atoms: _123  and  _126
REMARK   45  A    between atoms: _126  and  _127
REMARK   46  A    between atoms: _131  and  ZN_724
REMARK   47  A    between atoms: _132  and  _134
REMARK   48  A    between atoms: _134  and  _135
REMARK   49  A    between atoms: _138  and  _140
REMARK   50  A    between atoms: _140  and  _141
REMARK   51  A    between atoms: _140  and  _143
REMARK   52  A    between atoms: _143  and  _144
REMARK   53  A    between atoms: _149  and  _150
REMARK   54  A    between atoms: _152  and  _154
REMARK   55  A    between atoms: _154  and  _155
REMARK   56  A    between atoms: _158  and  _160
REMARK   57  A    between atoms: _160  and  _161
REMARK   58  A    between atoms: _160  and  _163
REMARK   59  A    between atoms: _163  and  _164
REMARK   60  A    between atoms: _167  and  _169
REMARK   61  A    between atoms: _169  and  _170
REMARK   62  A    between atoms: _172  and  _174
REMARK   63  A    between atoms: _174  and  _175
REMARK   64  A    between atoms: _174  and  _177
REMARK   65  A    between atoms: _177  and  _178
REMARK   66  A    between atoms: _181  and  _183
REMARK   67  A    between atoms: _183  and  _184
REMARK   68  A    between atoms: _183  and  _186
REMARK   69  A    between atoms: _186  and  _187
REMARK   70  A    between atoms: _188  and  ZN_724
REMARK   71  A    between atoms: _192  and  _194
REMARK   72  A    between atoms: _194  and  _195
REMARK   73  A    between atoms: _194  and  _197
REMARK   74  A    between atoms: _197  and  _198
REMARK   75  A    between atoms: _201  and  _203
REMARK   76  A    between atoms: _203  and  _204
REMARK   77  A    between atoms: _203  and  _206
REMARK   78  A    between atoms: _206  and  _207
REMARK   79  A    between atoms: _207  and  _208
REMARK   80  A    between atoms: _211  and  _213
REMARK   81  A    between atoms: _213  and  _214
REMARK   82  A    between atoms: _213  and  _216
REMARK   83  A    between atoms: _216  and  _217
REMARK   84  A    between atoms: _227  and  _229
REMARK   85  A    between atoms: _229  and  _230
REMARK   86  A    between atoms: _232  and  _234
REMARK   87  A    between atoms: _234  and  _235
REMARK   88  A    between atoms: _234  and  _237
REMARK   89  A    between atoms: _237  and  _238
REMARK   90  A    between atoms: _241  and  _243
REMARK   91  A    between atoms: _243  and  _244
REMARK   92  A    between atoms: _243  and  _246
REMARK   93  A    between atoms: _246  and  _247
REMARK   94  A    between atoms: _252  and  _254
REMARK   95  A    between atoms: _254  and  _255
REMARK   96  A    between atoms: _254  and  _257
REMARK   97  A    between atoms: _257  and  _258
REMARK   98  A    between atoms: _261  and  _263
REMARK   99  A    between atoms: _263  and  _264
REMARK  100  A    between atoms: _263  and  _266
REMARK  101  A    between atoms: _266  and  _267
REMARK  102  A    between atoms: _273  and  _275
REMARK  103  A    between atoms: _275  and  _276
REMARK  104  A    between atoms: _275  and  _278
REMARK  105  A    between atoms: _278  and  _279
REMARK  106  A    between atoms: _282  and  _284
REMARK  107  A    between atoms: _284  and  _285
REMARK  108  A    between atoms: _284  and  _287
REMARK  109  A    between atoms: _290  and  _292
REMARK  110  A    between atoms: _292  and  _293
REMARK  111  A    between atoms: _296  and  _298
REMARK  112  A    between atoms: _298  and  _299
REMARK  113  A    between atoms: _302  and  _304
REMARK  114  A    between atoms: _315  and  _318
REMARK  115  A    between atoms: _318  and  _319
REMARK  116  A    between atoms: _319  and  _320
REMARK  117  A    between atoms: _325  and  _328
REMARK  118  A    between atoms: _328  and  _329
REMARK  119  A    between atoms: _339  and  _340
REMARK  120  A    between atoms: _348  and  _350
REMARK  121  A    between atoms: _350  and  _351
REMARK  122  A    between atoms: _350  and  _353
REMARK  123  A    between atoms: _353  and  _354
REMARK  124  A    between atoms: _356  and  _358
REMARK  125  A    between atoms: _358  and  _359
REMARK  126  A    between atoms: _358  and  _361
REMARK  127  A    between atoms: _361  and  _362
REMARK  128  A    between atoms: _366  and  ZN_723
REMARK  129  A    between atoms: _367  and  _369
REMARK  130  A    between atoms: _369  and  _370
REMARK  131  A    between atoms: _369  and  _372
REMARK  132  A    between atoms: _372  and  _373
REMARK  133  A    between atoms: _375  and  _377
REMARK  134  A    between atoms: _377  and  _378
REMARK  135  A    between atoms: _377  and  _380
REMARK  136  A    between atoms: _380  and  _381
REMARK  137  A    between atoms: _386  and  _388
REMARK  138  A    between atoms: _388  and  _389
REMARK  139  A    between atoms: _388  and  _391
REMARK  140  A    between atoms: _391  and  _392
REMARK  141  A    between atoms: _395  and  _397
REMARK  142  A    between atoms: _397  and  _398
REMARK  143  A    between atoms: _397  and  _400
REMARK  144  A    between atoms: _400  and  _401
REMARK  145  A    between atoms: _401  and  _402
REMARK  146  A    between atoms: _405  and  _407
REMARK  147  A    between atoms: _407  and  _408
REMARK  148  A    between atoms: _411  and  _413
REMARK  149  A    between atoms: _413  and  _414
REMARK  150  A    between atoms: _413  and  _416
REMARK  151  A    between atoms: _416  and  _417
REMARK  152  A    between atoms: _420  and  _422
REMARK  153  A    between atoms: _422  and  _423
REMARK  154  A    between atoms: _422  and  _425
REMARK  155  A    between atoms: _425  and  _426
REMARK  156  A    between atoms: _426  and  _427
REMARK  157  A    between atoms: _429  and  _431
REMARK  158  A    between atoms: _431  and  _432
REMARK  159  A    between atoms: _431  and  _434
REMARK  160  A    between atoms: _434  and  _435
REMARK  161  A    between atoms: _440  and  _441
REMARK  162  A    between atoms: _444  and  _445
REMARK  163  A    between atoms: _450  and  _452
REMARK  164  A    between atoms: _452  and  _453
REMARK  165  A    between atoms: _452  and  _455
REMARK  166  A    between atoms: _455  and  _456
REMARK  167  A    between atoms: _459  and  _461
REMARK  168  A    between atoms: _461  and  _462
REMARK  169  A    between atoms: _461  and  _464
REMARK  170  A    between atoms: _464  and  _465
REMARK  171  A    between atoms: _470  and  _471
REMARK  172  A    between atoms: _473  and  _475
REMARK  173  A    between atoms: _475  and  _476
REMARK  174  A    between atoms: _475  and  _478
REMARK  175  A    between atoms: _478  and  _479
REMARK  176  A    between atoms: _484  and  _486
REMARK  177  A    between atoms: _486  and  _487
REMARK  178  A    between atoms: _486  and  _489
REMARK  179  A    between atoms: _489  and  _490
REMARK  180  A    between atoms: _492  and  _494
REMARK  181  A    between atoms: _494  and  _495
REMARK  182  A    between atoms: _494  and  _497
REMARK  183  A    between atoms: _497  and  _498
REMARK  184  A    between atoms: _501  and  _503
REMARK  185  A    between atoms: _503  and  _504
REMARK  186  A    between atoms: _503  and  _506
REMARK  187  A    between atoms: _506  and  _507
REMARK  188  A    between atoms: _510  and  _512
REMARK  189  A    between atoms: _512  and  _513
REMARK  190  A    between atoms: _512  and  _515
REMARK  191  A    between atoms: _515  and  _516
REMARK  192  A    between atoms: _519  and  _521
REMARK  193  A    between atoms: _521  and  _522
REMARK  194  A    between atoms: _521  and  _524
REMARK  195  A    between atoms: _524  and  _525
REMARK  196  A    between atoms: _528  and  _530
REMARK  197  A    between atoms: _530  and  _531
REMARK  198  A    between atoms: _530  and  _533
REMARK  199  A    between atoms: _533  and  _534
REMARK  200  A    between atoms: _534  and  _535
REMARK  201  A    between atoms: _535  and  _536
REMARK  202  A    between atoms: _545  and  _547
REMARK  203  A    between atoms: _547  and  _548
REMARK  204  A    between atoms: _547  and  _550
REMARK  205  A    between atoms: _550  and  _551
REMARK  206  A    between atoms: _557  and  _559
REMARK  207  A    between atoms: _559  and  _560
REMARK  208  A    between atoms: _559  and  _562
REMARK  209  A    between atoms: _562  and  _563
REMARK  210  A    between atoms: _563  and  _564
REMARK  211  A    between atoms: _564  and  _565
REMARK  212  A    between atoms: _574  and  _576
REMARK  213  A    between atoms: _576  and  _577
REMARK  214  A    between atoms: _576  and  _579
REMARK  215  A    between atoms: _579  and  _580
REMARK  216  A    between atoms: _582  and  _584
REMARK  217  A    between atoms: _584  and  _585
REMARK  218  A    between atoms: _584  and  _587
REMARK  219  A    between atoms: _587  and  _588
REMARK  220  A    between atoms: _591  and  _593
REMARK  221  A    between atoms: _593  and  _594
REMARK  222  A    between atoms: _593  and  _596
REMARK  223  A    between atoms: _596  and  _597
REMARK  224  A    between atoms: _601  and  _602
REMARK  225  A    between atoms: _607  and  _609
REMARK  226  A    between atoms: _609  and  _610
REMARK  227  A    between atoms: _609  and  _612
REMARK  228  A    between atoms: _612  and  _613
REMARK  229  A    between atoms: _618  and  _620
REMARK  230  A    between atoms: _620  and  _621
REMARK  231  A    between atoms: _620  and  _623
REMARK  232  A    between atoms: _623  and  _624
REMARK  233  A    between atoms: _627  and  _629
REMARK  234  A    between atoms: _629  and  _630
REMARK  235  A    between atoms: _629  and  _632
REMARK  236  A    between atoms: _632  and  _633
REMARK  237  A    between atoms: _639  and  _641
REMARK  238  A    between atoms: _641  and  _642
REMARK  239  A    between atoms: _641  and  _644
REMARK  240  A    between atoms: _644  and  _645
REMARK  241  A    between atoms: _650  and  _652
REMARK  242  A    between atoms: _652  and  _653
REMARK  243  A    between atoms: _652  and  _655
REMARK  244  A    between atoms: _655  and  _656
REMARK  245  A    between atoms: _658  and  _660
REMARK  246  A    between atoms: _660  and  _661
REMARK  247  A    between atoms: _664  and  _666
REMARK  248  A    between atoms: _666  and  _667
REMARK  249  A    between atoms: _666  and  _669
REMARK  250  A    between atoms: _669  and  _670
REMARK  251  A    between atoms: _675  and  _677
REMARK  252  A    between atoms: _677  and  _678
REMARK  253  A    between atoms: _677  and  _680
REMARK  254  A    between atoms: _680  and  _681
REMARK  255  A    between atoms: _684  and  _686
REMARK  256  A    between atoms: _686  and  _687
REMARK  257  A    between atoms: _686  and  _689
REMARK  258  A    between atoms: _689  and  _690
REMARK  259  A    between atoms: _690  and  _691
REMARK  260  A    between atoms: _693  and  _695
REMARK  261  A    between atoms: _695  and  _696
REMARK  262  A    between atoms: _695  and  _698
REMARK  263  A    between atoms: _698  and  _699
REMARK  264  A    between atoms: _704  and  _705
REMARK  265  A    between atoms: _708  and  _709
REMARK  266  A    between atoms: _714  and  _716
REMARK  267  A    between atoms: _716  and  _717
REMARK  268  A    between atoms: _716  and  _719
REMARK  269  A    between atoms: _719  and  _720
REMARK                            x       y       z     vdW  Elec       q    Type
REMARK                         _______ _______ _______ _____ _____    ______ ____
ROOT
ATOM      1  C   GLY A   1      20.586  31.336  25.562  0.00  0.00    +0.240 C 
ATOM      2  O   GLY A   1      21.278  30.467  26.082  0.00  0.00    -0.274 OA
ATOM      3  N   ASP A   2      20.529  31.513  24.243  0.00  0.00    -0.298 N 
ATOM      4  H   ASP A   2      19.936  32.277  23.860  0.00  0.00    +0.150 HD
ENDROOT
BRANCH   1   5
ATOM      5  CA  GLY A   1      19.755  32.264  26.435  0.00  0.00    +0.169 C 
BRANCH   5   6
ATOM      6  N   GLY A   1      19.282  33.432  25.718  0.00  0.00    -0.236 NA
ATOM      7  H   GLY A   1      19.859  34.297  25.710  0.00  0.00    +0.142 HD
ENDBRANCH   5   6
ENDBRANCH   1   5
BRANCH   3   8
ATOM      8  CA  ASP A   2      21.279  30.660  23.317  0.00  0.00    +0.148 C 
BRANCH   8   9
ATOM      9  C   ASP A   2      22.776  30.975  23.285  0.00  0.00    +0.227 C 
ATOM     10  O   ASP A   2      23.195  32.094  23.595  0.00  0.00    -0.286 OA
ENDBRANCH   8   9
BRANCH   8  11
ATOM     11  CB  ASP A   2      20.694  30.737  21.900  0.00  0.00    +0.142 C 
BRANCH  11  12
ATOM     12  CG  ASP A   2      19.262  30.217  21.821  0.00  0.00    +0.367 C 
ATOM     13  OD2 ASP A   2      18.732  29.721  22.834  0.00  0.00    -0.246 OA
ATOM     14  OD1 ASP A   2      18.663  30.294  20.734  0.00  0.00    -0.246 OA
ENDBRANCH  11  12
ENDBRANCH   8  11
ENDBRANCH   3   8
TORSDOF 6
REMARK  Name = ../refined-set-2016/1hfs/1hfs_pocket.pdb
REMARK  269 active torsions:
REMARK  status: ('A' for Active; 'I' for Inactive)
REMARK    1  A    between atoms: _1  and  _3
REMARK    2  A    between atoms: _3  and  _4
REMARK    3  A    between atoms: _3  and  _6
REMARK    4  A    between atoms: _6  and  _7
REMARK    5  A    between atoms: _11  and  ZN_724
REMARK    6  A    between atoms: _12  and  _14
REMARK    7  A    between atoms: _14  and  _15
REMARK    8  A    between atoms: _14  and  _17
REMARK    9  A    between atoms: _17  and  _18
REMARK   10  A    between atoms: _18  and  _20
REMARK   11  A    between atoms: _20  and  ZN_724
REMARK   12  A    between atoms: _21  and  _23
REMARK   13  A    between atoms: _23  and  _24
REMARK   14  A    between atoms: _23  and  _26
REMARK   15  A    between atoms: _26  and  _27
REMARK   16  A    between atoms: _33  and  _35
REMARK   17  A    between atoms: _35  and  _36
REMARK   18  A    between atoms: _35  and  _38
REMARK   19  A    between atoms: _38  and  _39
REMARK   20  A    between atoms: _44  and  _45
REMARK   21  A    between atoms: _48  and  _49
REMARK   22  A    between atoms: _54  and  _56
REMARK   23  A    between atoms: _56  and  _57
REMARK   24  A    between atoms: _56  and  _59
REMARK   25  A    between atoms: _59  and  _60
REMARK   26  A    between atoms: _66  and  _68
REMARK   27  A    between atoms: _68  and  _69
REMARK   28  A    between atoms: _68  and  _71
REMARK   29  A    between atoms: _71  and  _72
REMARK   30  A    between atoms: _76  and  _77
REMARK   31  A    between atoms: _82  and  _84
REMARK   32  A    between atoms: _89  and  _92
REMARK   33  A    between atoms: _92  and  _93
REMARK   34  A    between atoms: _100  and  _103
REMARK   35  A    between atoms: _101  and  _106
REMARK   36  A    between atoms: _106  and  _108
REMARK   37  A    between atoms: _108  and  _109
REMARK   38  A    between atoms: _108  and  _111
REMARK   39  A    between atoms: _111  and  _112
REMARK   40  A    between atoms: _115  and  _117
REMARK   41  A    between atoms: _117  and  _118
REMARK   42  A    between atoms: _121  and  _123
REMARK   43  A    between atoms: _123  and  _124
REMARK   44  A    between atoms: _123  and  _126
REMARK   45  A    between atoms: _126  and  _127
REMARK   46  A    between atoms: _131  and  ZN_724
REMARK   47  A    between atoms: _132  and  _134
REMARK   48  A    between atoms: _134  and  _135
REMARK   49  A    between atoms: _138  and  _140
REMARK   50  A    between atoms: _140  and  _141
REMARK   51  A    between atoms: _140  and  _143
REMARK   52  A    between atoms: _143  and  _144
REMARK   53  A    between atoms: _149  and  _150
REMARK   54  A    between atoms: _152  and  _154
REMARK   55  A    between atoms: _154  and  _155
REMARK   56  A    between atoms: _158  and  _160
REMARK   57  A    between atoms: _160  and  _161
REMARK   58  A    between atoms: _160  and  _163
REMARK   59  A    between atoms: _163  and  _164
REMARK   60  A    between atoms: _167  and  _169
REMARK   61  A    between atoms: _169  and  _170
REMARK   62  A    between atoms: _172  and  _174
REMARK   63  A    between atoms: _174  and  _175
REMARK   64  A    between atoms: _174  and  _177
REMARK   65  A    between atoms: _177  and  _178
REMARK   66  A    between atoms: _181  and  _183
REMARK   67  A    between atoms: _183  and  _184
REMARK   68  A    between atoms: _183  and  _186
REMARK   69  A    between atoms: _186  and  _187
REMARK   70  A    between atoms: _188  and  ZN_724
REMARK   71  A    between atoms: _192  and  _194
REMARK   72  A    between atoms: _194  and  _195
REMARK   73  A    between atoms: _194  and  _197
REMARK   74  A    between atoms: _197  and  _198
REMARK   75  A    between atoms: _201  and  _203
REMARK   76  A    between atoms: _203  and  _204
REMARK   77  A    between atoms: _203  and  _206
REMARK   78  A    between atoms: _206  and  _207
REMARK   79  A    between atoms: _207  and  _208
REMARK   80  A    between atoms: _211  and  _213
REMARK   81  A    between atoms: _213  and  _214
REMARK   82  A    between atoms: _213  and  _216
REMARK   83  A    between atoms: _216  and  _217
REMARK   84  A    between atoms: _227  and  _229
REMARK   85  A    between atoms: _229  and  _230
REMARK   86  A    between atoms: _232  and  _234
REMARK   87  A    between atoms: _234  and  _235
REMARK   88  A    between atoms: _234  and  _237
REMARK   89  A    between atoms: _237  and  _238
REMARK   90  A    between atoms: _241  and  _243
REMARK   91  A    between atoms: _243  and  _244
REMARK   92  A    between atoms: _243  and  _246
REMARK   93  A    between atoms: _246  and  _247
REMARK   94  A    between atoms: _252  and  _254
REMARK   95  A    between atoms: _254  and  _255
REMARK   96  A    between atoms: _254  and  _257
REMARK   97  A    between atoms: _257  and  _258
REMARK   98  A    between atoms: _261  and  _263
REMARK   99  A    between atoms: _263  and  _264
REMARK  100  A    between atoms: _263  and  _266
REMARK  101  A    between atoms: _266  and  _267
REMARK  102  A    between atoms: _273  and  _275
REMARK  103  A    between atoms: _275  and  _276
REMARK  104  A    between atoms: _275  and  _278
REMARK  105  A    between atoms: _278  and  _279
REMARK  106  A    between atoms: _282  and  _284
REMARK  107  A    between atoms: _284  and  _285
REMARK  108  A    between atoms: _284  and  _287
REMARK  109  A    between atoms: _290  and  _292
REMARK  110  A    between atoms: _292  and  _293
REMARK  111  A    between atoms: _296  and  _298
REMARK  112  A    between atoms: _298  and  _299
REMARK  113  A    between atoms: _302  and  _304
REMARK  114  A    between atoms: _315  and  _318
REMARK  115  A    between atoms: _318  and  _319
REMARK  116  A    between atoms: _319  and  _320
REMARK  117  A    between atoms: _325  and  _328
REMARK  118  A    between atoms: _328  and  _329
REMARK  119  A    between atoms: _339  and  _340
REMARK  120  A    between atoms: _348  and  _350
REMARK  121  A    between atoms: _350  and  _351
REMARK  122  A    between atoms: _350  and  _353
REMARK  123  A    between atoms: _353  and  _354
REMARK  124  A    between atoms: _356  and  _358
REMARK  125  A    between atoms: _358  and  _359
REMARK  126  A    between atoms: _358  and  _361
REMARK  127  A    between atoms: _361  and  _362
REMARK  128  A    between atoms: _366  and  ZN_723
REMARK  129  A    between atoms: _367  and  _369
REMARK  130  A    between atoms: _369  and  _370
REMARK  131  A    between atoms: _369  and  _372
REMARK  132  A    between atoms: _372  and  _373
REMARK  133  A    between atoms: _375  and  _377
REMARK  134  A    between atoms: _377  and  _378
REMARK  135  A    between atoms: _377  and  _380
REMARK  136  A    between atoms: _380  and  _381
REMARK  137  A    between atoms: _386  and  _388
REMARK  138  A    between atoms: _388  and  _389
REMARK  139  A    between atoms: _388  and  _391
REMARK  140  A    between atoms: _391  and  _392
REMARK  141  A    between atoms: _395  and  _397
REMARK  142  A    between atoms: _397  and  _398
REMARK  143  A    between atoms: _397  and  _400
REMARK  144  A    between atoms: _400  and  _401
REMARK  145  A    between atoms: _401  and  _402
REMARK  146  A    between atoms: _405  and  _407
REMARK  147  A    between atoms: _407  and  _408
REMARK  148  A    between atoms: _411  and  _413
REMARK  149  A    between atoms: _413  and  _414
REMARK  150  A    between atoms: _413  and  _416
REMARK  151  A    between atoms: _416  and  _417
REMARK  152  A    between atoms: _420  and  _422
REMARK  153  A    between atoms: _422  and  _423
REMARK  154  A    between atoms: _422  and  _425
REMARK  155  A    between atoms: _425  and  _426
REMARK  156  A    between atoms: _426  and  _427
REMARK  157  A    between atoms: _429  and  _431
REMARK  158  A    between atoms: _431  and  _432
REMARK  159  A    between atoms: _431  and  _434
REMARK  160  A    between atoms: _434  and  _435
REMARK  161  A    between atoms: _440  and  _441
REMARK  162  A    between atoms: _444  and  _445
REMARK  163  A    between atoms: _450  and  _452
REMARK  164  A    between atoms: _452  and  _453
REMARK  165  A    between atoms: _452  and  _455
REMARK  166  A    between atoms: _455  and  _456
REMARK  167  A    between atoms: _459  and  _461
REMARK  168  A    between atoms: _461  and  _462
REMARK  169  A    between atoms: _461  and  _464
REMARK  170  A    between atoms: _464  and  _465
REMARK  171  A    between atoms: _470  and  _471
REMARK  172  A    between atoms: _473  and  _475
REMARK  173  A    between atoms: _475  and  _476
REMARK  174  A    between atoms: _475  and  _478
REMARK  175  A    between atoms: _478  and  _479
REMARK  176  A    between atoms: _484  and  _486
REMARK  177  A    between atoms: _486  and  _487
REMARK  178  A    between atoms: _486  and  _489
REMARK  179  A    between atoms: _489  and  _490
REMARK  180  A    between atoms: _492  and  _494
REMARK  181  A    between atoms: _494  and  _495
REMARK  182  A    between atoms: _494  and  _497
REMARK  183  A    between atoms: _497  and  _498
REMARK  184  A    between atoms: _501  and  _503
REMARK  185  A    between atoms: _503  and  _504
REMARK  186  A    between atoms: _503  and  _506
REMARK  187  A    between atoms: _506  and  _507
REMARK  188  A    between atoms: _510  and  _512
REMARK  189  A    between atoms: _512  and  _513
REMARK  190  A    between atoms: _512  and  _515
REMARK  191  A    between atoms: _515  and  _516
REMARK  192  A    between atoms: _519  and  _521
REMARK  193  A    between atoms: _521  and  _522
REMARK  194  A    between atoms: _521  and  _524
REMARK  195  A    between atoms: _524  and  _525
REMARK  196  A    between atoms: _528  and  _530
REMARK  197  A    between atoms: _530  and  _531
REMARK  198  A    between atoms: _530  and  _533
REMARK  199  A    between atoms: _533  and  _534
REMARK  200  A    between atoms: _534  and  _535
REMARK  201  A    between atoms: _535  and  _536
REMARK  202  A    between atoms: _545  and  _547
REMARK  203  A    between atoms: _547  and  _548
REMARK  204  A    between atoms: _547  and  _550
REMARK  205  A    between atoms: _550  and  _551
REMARK  206  A    between atoms: _557  and  _559
REMARK  207  A    between atoms: _559  and  _560
REMARK  208  A    between atoms: _559  and  _562
REMARK  209  A    between atoms: _562  and  _563
REMARK  210  A    between atoms: _563  and  _564
REMARK  211  A    between atoms: _564  and  _565
REMARK  212  A    between atoms: _574  and  _576
REMARK  213  A    between atoms: _576  and  _577
REMARK  214  A    between atoms: _576  and  _579
REMARK  215  A    between atoms: _579  and  _580
REMARK  216  A    between atoms: _582  and  _584
REMARK  217  A    between atoms: _584  and  _585
REMARK  218  A    between atoms: _584  and  _587
REMARK  219  A    between atoms: _587  and  _588
REMARK  220  A    between atoms: _591  and  _593
REMARK  221  A    between atoms: _593  and  _594
REMARK  222  A    between atoms: _593  and  _596
REMARK  223  A    between atoms: _596  and  _597
REMARK  224  A    between atoms: _601  and  _602
REMARK  225  A    between atoms: _607  and  _609
REMARK  226  A    between atoms: _609  and  _610
REMARK  227  A    between atoms: _609  and  _612
REMARK  228  A    between atoms: _612  and  _613
REMARK  229  A    between atoms: _618  and  _620
REMARK  230  A    between atoms: _620  and  _621
REMARK  231  A    between atoms: _620  and  _623
REMARK  232  A    between atoms: _623  and  _624
REMARK  233  A    between atoms: _627  and  _629
REMARK  234  A    between atoms: _629  and  _630
REMARK  235  A    between atoms: _629  and  _632
REMARK  236  A    between atoms: _632  and  _633
REMARK  237  A    between atoms: _639  and  _641
REMARK  238  A    between atoms: _641  and  _642
REMARK  239  A    between atoms: _641  and  _644
REMARK  240  A    between atoms: _644  and  _645
REMARK  241  A    between atoms: _650  and  _652
REMARK  242  A    between atoms: _652  and  _653
REMARK  243  A    between atoms: _652  and  _655
REMARK  244  A    between atoms: _655  and  _656
REMARK  245  A    between atoms: _658  and  _660
REMARK  246  A    between atoms: _660  and  _661
REMARK  247  A    between atoms: _664  and  _666
REMARK  248  A    between atoms: _666  and  _667
REMARK  249  A    between atoms: _666  and  _669
REMARK  250  A    between atoms: _669  and  _670
REMARK  251  A    between atoms: _675  and  _677
REMARK  252  A    between atoms: _677  and  _678
REMARK  253  A    between atoms: _677  and  _680
REMARK  254  A    between atoms: _680  and  _681
REMARK  255  A    between atoms: _684  and  _686
REMARK  256  A    between atoms: _686  and  _687
REMARK  257  A    between atoms: _686  and  _689
REMARK  258  A    between atoms: _689  and  _690
REMARK  259  A    between atoms: _690  and  _691
REMARK  260  A    between atoms: _693  and  _695
REMARK  261  A    between atoms: _695  and  _696
REMARK  262  A    between atoms: _695  and  _698
REMARK  263  A    between atoms: _698  and  _699
REMARK  264  A    between atoms: _704  and  _705
REMARK  265  A    between atoms: _708  and  _709
REMARK  266  A    between atoms: _714  and  _716
REMARK  267  A    between atoms: _716  and  _717
REMARK  268  A    between atoms: _716  and  _719
REMARK  269  A    between atoms: _719  and  _720
REMARK                            x       y       z     vdW  Elec       q    Type
REMARK                         _______ _______ _______ _____ _____    ______ ____
ROOT
ATOM      1  CA  ASP A   1      32.469  30.072  16.030  0.00  0.00    +0.144 C 
ENDROOT
BRANCH   1   2
ATOM      2  N   ASP A   1      31.891  29.853  17.351  0.00  0.00    -0.239 NA
ATOM      3  H   ASP A   1      32.287  30.360  18.169  0.00  0.00    +0.142 HD
ENDBRANCH   1   2
BRANCH   1   4
ATOM      4  C   ASP A   1      33.251  28.837  15.590  0.00  0.00    +0.225 C 
ATOM      5  O   ASP A   1      34.324  28.545  16.122  0.00  0.00    -0.287 OA
ENDBRANCH   1   4
BRANCH   1   6
ATOM      6  CB  ASP A   1      33.388  31.299  16.042  0.00  0.00    +0.139 C 
BRANCH   6   7
ATOM      7  CG  ASP A   1      33.769  31.770  14.642  0.00  0.00    +0.367 C 
ATOM      8  OD2 ASP A   1      34.203  32.927  14.515  0.00  0.00    -0.246 OA
ATOM      9  OD1 ASP A   1      33.622  31.012  13.664  0.00  0.00    -0.246 OA
ENDBRANCH   6   7
ENDBRANCH   1   6
TORSDOF 4
REMARK  Name = ../refined-set-2016/1hfs/1hfs_pocket.pdb
REMARK  269 active torsions:
REMARK  status: ('A' for Active; 'I' for Inactive)
REMARK    1  A    between atoms: _1  and  _3
REMARK    2  A    between atoms: _3  and  _4
REMARK    3  A    between atoms: _3  and  _6
REMARK    4  A    between atoms: _6  and  _7
REMARK    5  A    between atoms: _11  and  ZN_724
REMARK    6  A    between atoms: _12  and  _14
REMARK    7  A    between atoms: _14  and  _15
REMARK    8  A    between atoms: _14  and  _17
REMARK    9  A    between atoms: _17  and  _18
REMARK   10  A    between atoms: _18  and  _20
REMARK   11  A    between atoms: _20  and  ZN_724
REMARK   12  A    between atoms: _21  and  _23
REMARK   13  A    between atoms: _23  and  _24
REMARK   14  A    between atoms: _23  and  _26
REMARK   15  A    between atoms: _26  and  _27
REMARK   16  A    between atoms: _33  and  _35
REMARK   17  A    between atoms: _35  and  _36
REMARK   18  A    between atoms: _35  and  _38
REMARK   19  A    between atoms: _38  and  _39
REMARK   20  A    between atoms: _44  and  _45
REMARK   21  A    between atoms: _48  and  _49
REMARK   22  A    between atoms: _54  and  _56
REMARK   23  A    between atoms: _56  and  _57
REMARK   24  A    between atoms: _56  and  _59
REMARK   25  A    between atoms: _59  and  _60
REMARK   26  A    between atoms: _66  and  _68
REMARK   27  A    between atoms: _68  and  _69
REMARK   28  A    between atoms: _68  and  _71
REMARK   29  A    between atoms: _71  and  _72
REMARK   30  A    between atoms: _76  and  _77
REMARK   31  A    between atoms: _82  and  _84
REMARK   32  A    between atoms: _89  and  _92
REMARK   33  A    between atoms: _92  and  _93
REMARK   34  A    between atoms: _100  and  _103
REMARK   35  A    between atoms: _101  and  _106
REMARK   36  A    between atoms: _106  and  _108
REMARK   37  A    between atoms: _108  and  _109
REMARK   38  A    between atoms: _108  and  _111
REMARK   39  A    between atoms: _111  and  _112
REMARK   40  A    between atoms: _115  and  _117
REMARK   41  A    between atoms: _117  and  _118
REMARK   42  A    between atoms: _121  and  _123
REMARK   43  A    between atoms: _123  and  _124
REMARK   44  A    between atoms: _123  and  _126
REMARK   45  A    between atoms: _126  and  _127
REMARK   46  A    between atoms: _131  and  ZN_724
REMARK   47  A    between atoms: _132  and  _134
REMARK   48  A    between atoms: _134  and  _135
REMARK   49  A    between atoms: _138  and  _140
REMARK   50  A    between atoms: _140  and  _141
REMARK   51  A    between atoms: _140  and  _143
REMARK   52  A    between atoms: _143  and  _144
REMARK   53  A    between atoms: _149  and  _150
REMARK   54  A    between atoms: _152  and  _154
REMARK   55  A    between atoms: _154  and  _155
REMARK   56  A    between atoms: _158  and  _160
REMARK   57  A    between atoms: _160  and  _161
REMARK   58  A    between atoms: _160  and  _163
REMARK   59  A    between atoms: _163  and  _164
REMARK   60  A    between atoms: _167  and  _169
REMARK   61  A    between atoms: _169  and  _170
REMARK   62  A    between atoms: _172  and  _174
REMARK   63  A    between atoms: _174  and  _175
REMARK   64  A    between atoms: _174  and  _177
REMARK   65  A    between atoms: _177  and  _178
REMARK   66  A    between atoms: _181  and  _183
REMARK   67  A    between atoms: _183  and  _184
REMARK   68  A    between atoms: _183  and  _186
REMARK   69  A    between atoms: _186  and  _187
REMARK   70  A    between atoms: _188  and  ZN_724
REMARK   71  A    between atoms: _192  and  _194
REMARK   72  A    between atoms: _194  and  _195
REMARK   73  A    between atoms: _194  and  _197
REMARK   74  A    between atoms: _197  and  _198
REMARK   75  A    between atoms: _201  and  _203
REMARK   76  A    between atoms: _203  and  _204
REMARK   77  A    between atoms: _203  and  _206
REMARK   78  A    between atoms: _206  and  _207
REMARK   79  A    between atoms: _207  and  _208
REMARK   80  A    between atoms: _211  and  _213
REMARK   81  A    between atoms: _213  and  _214
REMARK   82  A    between atoms: _213  and  _216
REMARK   83  A    between atoms: _216  and  _217
REMARK   84  A    between atoms: _227  and  _229
REMARK   85  A    between atoms: _229  and  _230
REMARK   86  A    between atoms: _232  and  _234
REMARK   87  A    between atoms: _234  and  _235
REMARK   88  A    between atoms: _234  and  _237
REMARK   89  A    between atoms: _237  and  _238
REMARK   90  A    between atoms: _241  and  _243
REMARK   91  A    between atoms: _243  and  _244
REMARK   92  A    between atoms: _243  and  _246
REMARK   93  A    between atoms: _246  and  _247
REMARK   94  A    between atoms: _252  and  _254
REMARK   95  A    between atoms: _254  and  _255
REMARK   96  A    between atoms: _254  and  _257
REMARK   97  A    between atoms: _257  and  _258
REMARK   98  A    between atoms: _261  and  _263
REMARK   99  A    between atoms: _263  and  _264
REMARK  100  A    between atoms: _263  and  _266
REMARK  101  A    between atoms: _266  and  _267
REMARK  102  A    between atoms: _273  and  _275
REMARK  103  A    between atoms: _275  and  _276
REMARK  104  A    between atoms: _275  and  _278
REMARK  105  A    between atoms: _278  and  _279
REMARK  106  A    between atoms: _282  and  _284
REMARK  107  A    between atoms: _284  and  _285
REMARK  108  A    between atoms: _284  and  _287
REMARK  109  A    between atoms: _290  and  _292
REMARK  110  A    between atoms: _292  and  _293
REMARK  111  A    between atoms: _296  and  _298
REMARK  112  A    between atoms: _298  and  _299
REMARK  113  A    between atoms: _302  and  _304
REMARK  114  A    between atoms: _315  and  _318
REMARK  115  A    between atoms: _318  and  _319
REMARK  116  A    between atoms: _319  and  _320
REMARK  117  A    between atoms: _325  and  _328
REMARK  118  A    between atoms: _328  and  _329
REMARK  119  A    between atoms: _339  and  _340
REMARK  120  A    between atoms: _348  and  _350
REMARK  121  A    between atoms: _350  and  _351
REMARK  122  A    between atoms: _350  and  _353
REMARK  123  A    between atoms: _353  and  _354
REMARK  124  A    between atoms: _356  and  _358
REMARK  125  A    between atoms: _358  and  _359
REMARK  126  A    between atoms: _358  and  _361
REMARK  127  A    between atoms: _361  and  _362
REMARK  128  A    between atoms: _366  and  ZN_723
REMARK  129  A    between atoms: _367  and  _369
REMARK  130  A    between atoms: _369  and  _370
REMARK  131  A    between atoms: _369  and  _372
REMARK  132  A    between atoms: _372  and  _373
REMARK  133  A    between atoms: _375  and  _377
REMARK  134  A    between atoms: _377  and  _378
REMARK  135  A    between atoms: _377  and  _380
REMARK  136  A    between atoms: _380  and  _381
REMARK  137  A    between atoms: _386  and  _388
REMARK  138  A    between atoms: _388  and  _389
REMARK  139  A    between atoms: _388  and  _391
REMARK  140  A    between atoms: _391  and  _392
REMARK  141  A    between atoms: _395  and  _397
REMARK  142  A    between atoms: _397  and  _398
REMARK  143  A    between atoms: _397  and  _400
REMARK  144  A    between atoms: _400  and  _401
REMARK  145  A    between atoms: _401  and  _402
REMARK  146  A    between atoms: _405  and  _407
REMARK  147  A    between atoms: _407  and  _408
REMARK  148  A    between atoms: _411  and  _413
REMARK  149  A    between atoms: _413  and  _414
REMARK  150  A    between atoms: _413  and  _416
REMARK  151  A    between atoms: _416  and  _417
REMARK  152  A    between atoms: _420  and  _422
REMARK  153  A    between atoms: _422  and  _423
REMARK  154  A    between atoms: _422  and  _425
REMARK  155  A    between atoms: _425  and  _426
REMARK  156  A    between atoms: _426  and  _427
REMARK  157  A    between atoms: _429  and  _431
REMARK  158  A    between atoms: _431  and  _432
REMARK  159  A    between atoms: _431  and  _434
REMARK  160  A    between atoms: _434  and  _435
REMARK  161  A    between atoms: _440  and  _441
REMARK  162  A    between atoms: _444  and  _445
REMARK  163  A    between atoms: _450  and  _452
REMARK  164  A    between atoms: _452  and  _453
REMARK  165  A    between atoms: _452  and  _455
REMARK  166  A    between atoms: _455  and  _456
REMARK  167  A    between atoms: _459  and  _461
REMARK  168  A    between atoms: _461  and  _462
REMARK  169  A    between atoms: _461  and  _464
REMARK  170  A    between atoms: _464  and  _465
REMARK  171  A    between atoms: _470  and  _471
REMARK  172  A    between atoms: _473  and  _475
REMARK  173  A    between atoms: _475  and  _476
REMARK  174  A    between atoms: _475  and  _478
REMARK  175  A    between atoms: _478  and  _479
REMARK  176  A    between atoms: _484  and  _486
REMARK  177  A    between atoms: _486  and  _487
REMARK  178  A    between atoms: _486  and  _489
REMARK  179  A    between atoms: _489  and  _490
REMARK  180  A    between atoms: _492  and  _494
REMARK  181  A    between atoms: _494  and  _495
REMARK  182  A    between atoms: _494  and  _497
REMARK  183  A    between atoms: _497  and  _498
REMARK  184  A    between atoms: _501  and  _503
REMARK  185  A    between atoms: _503  and  _504
REMARK  186  A    between atoms: _503  and  _506
REMARK  187  A    between atoms: _506  and  _507
REMARK  188  A    between atoms: _510  and  _512
REMARK  189  A    between atoms: _512  and  _513
REMARK  190  A    between atoms: _512  and  _515
REMARK  191  A    between atoms: _515  and  _516
REMARK  192  A    between atoms: _519  and  _521
REMARK  193  A    between atoms: _521  and  _522
REMARK  194  A    between atoms: _521  and  _524
REMARK  195  A    between atoms: _524  and  _525
REMARK  196  A    between atoms: _528  and  _530
REMARK  197  A    between atoms: _530  and  _531
REMARK  198  A    between atoms: _530  and  _533
REMARK  199  A    between atoms: _533  and  _534
REMARK  200  A    between atoms: _534  and  _535
REMARK  201  A    between atoms: _535  and  _536
REMARK  202  A    between atoms: _545  and  _547
REMARK  203  A    between atoms: _547  and  _548
REMARK  204  A    between atoms: _547  and  _550
REMARK  205  A    between atoms: _550  and  _551
REMARK  206  A    between atoms: _557  and  _559
REMARK  207  A    between atoms: _559  and  _560
REMARK  208  A    between atoms: _559  and  _562
REMARK  209  A    between atoms: _562  and  _563
REMARK  210  A    between atoms: _563  and  _564
REMARK  211  A    between atoms: _564  and  _565
REMARK  212  A    between atoms: _574  and  _576
REMARK  213  A    between atoms: _576  and  _577
REMARK  214  A    between atoms: _576  and  _579
REMARK  215  A    between atoms: _579  and  _580
REMARK  216  A    between atoms: _582  and  _584
REMARK  217  A    between atoms: _584  and  _585
REMARK  218  A    between atoms: _584  and  _587
REMARK  219  A    between atoms: _587  and  _588
REMARK  220  A    between atoms: _591  and  _593
REMARK  221  A    between atoms: _593  and  _594
REMARK  222  A    between atoms: _593  and  _596
REMARK  223  A    between atoms: _596  and  _597
REMARK  224  A    between atoms: _601  and  _602
REMARK  225  A    between atoms: _607  and  _609
REMARK  226  A    between atoms: _609  and  _610
REMARK  227  A    between atoms: _609  and  _612
REMARK  228  A    between atoms: _612  and  _613
REMARK  229  A    between atoms: _618  and  _620
REMARK  230  A    between atoms: _620  and  _621
REMARK  231  A    between atoms: _620  and  _623
REMARK  232  A    between atoms: _623  and  _624
REMARK  233  A    between atoms: _627  and  _629
REMARK  234  A    between atoms: _629  and  _630
REMARK  235  A    between atoms: _629  and  _632
REMARK  236  A    between atoms: _632  and  _633
REMARK  237  A    between atoms: _639  and  _641
REMARK  238  A    between atoms: _641  and  _642
REMARK  239  A    between atoms: _641  and  _644
REMARK  240  A    between atoms: _644  and  _645
REMARK  241  A    between atoms: _650  and  _652
REMARK  242  A    between atoms: _652  and  _653
REMARK  243  A    between atoms: _652  and  _655
REMARK  244  A    between atoms: _655  and  _656
REMARK  245  A    between atoms: _658  and  _660
REMARK  246  A    between atoms: _660  and  _661
REMARK  247  A    between atoms: _664  and  _666
REMARK  248  A    between atoms: _666  and  _667
REMARK  249  A    between atoms: _666  and  _669
REMARK  250  A    between atoms: _669  and  _670
REMARK  251  A    between atoms: _675  and  _677
REMARK  252  A    between atoms: _677  and  _678
REMARK  253  A    between atoms: _677  and  _680
REMARK  254  A    between atoms: _680  and  _681
REMARK  255  A    between atoms: _684  and  _686
REMARK  256  A    between atoms: _686  and  _687
REMARK  257  A    between atoms: _686  and  _689
REMARK  258  A    between atoms: _689  and  _690
REMARK  259  A    between atoms: _690  and  _691
REMARK  260  A    between atoms: _693  and  _695
REMARK  261  A    between atoms: _695  and  _696
REMARK  262  A    between atoms: _695  and  _698
REMARK  263  A    between atoms: _698  and  _699
REMARK  264  A    between atoms: _704  and  _705
REMARK  265  A    between atoms: _708  and  _709
REMARK  266  A    between atoms: _714  and  _716
REMARK  267  A    between atoms: _716  and  _717
REMARK  268  A    between atoms: _716  and  _719
REMARK  269  A    between atoms: _719  and  _720
REMARK                            x       y       z     vdW  Elec       q    Type
REMARK                         _______ _______ _______ _____ _____    ______ ____
ROOT
ATOM      1  CA  GLU A   1      38.031  28.226  15.573  0.00  0.00    +0.134 C 
ENDROOT
BRANCH   1   2
ATOM      2  N   GLU A   1      37.014  28.446  14.549  0.00  0.00    -0.239 NA
ATOM      3  H   GLU A   1      36.010  28.440  14.822  0.00  0.00    +0.142 HD
ENDBRANCH   1   2
BRANCH   1   4
ATOM      4  C   GLU A   1      38.256  26.721  15.599  0.00  0.00    +0.224 C 
ATOM      5  O   GLU A   1      37.375  25.942  15.202  0.00  0.00    -0.287 OA
ENDBRANCH   1   4
BRANCH   1   6
ATOM      6  CB  GLU A   1      37.547  28.608  16.980  0.00  0.00    +0.037 C 
BRANCH   6   7
ATOM      7  CG  GLU A   1      36.949  29.977  17.143  0.00  0.00    +0.116 C 
BRANCH   7   8
ATOM      8  CD  GLU A   1      37.793  31.079  16.546  0.00  0.00    +0.365 C 
ATOM      9  OE2 GLU A   1      39.040  30.998  16.521  0.00  0.00    -0.246 OA
ATOM     10  OE1 GLU A   1      37.184  32.048  16.097  0.00  0.00    -0.246 OA
ENDBRANCH   7   8
ENDBRANCH   6   7
ENDBRANCH   1   6
TORSDOF 5
REMARK  Name = ../refined-set-2016/1hfs/1hfs_pocket.pdb
REMARK  269 active torsions:
REMARK  status: ('A' for Active; 'I' for Inactive)
REMARK    1  A    between atoms: _1  and  _3
REMARK    2  A    between atoms: _3  and  _4
REMARK    3  A    between atoms: _3  and  _6
REMARK    4  A    between atoms: _6  and  _7
REMARK    5  A    between atoms: _11  and  ZN_724
REMARK    6  A    between atoms: _12  and  _14
REMARK    7  A    between atoms: _14  and  _15
REMARK    8  A    between atoms: _14  and  _17
REMARK    9  A    between atoms: _17  and  _18
REMARK   10  A    between atoms: _18  and  _20
REMARK   11  A    between atoms: _20  and  ZN_724
REMARK   12  A    between atoms: _21  and  _23
REMARK   13  A    between atoms: _23  and  _24
REMARK   14  A    between atoms: _23  and  _26
REMARK   15  A    between atoms: _26  and  _27
REMARK   16  A    between atoms: _33  and  _35
REMARK   17  A    between atoms: _35  and  _36
REMARK   18  A    between atoms: _35  and  _38
REMARK   19  A    between atoms: _38  and  _39
REMARK   20  A    between atoms: _44  and  _45
REMARK   21  A    between atoms: _48  and  _49
REMARK   22  A    between atoms: _54  and  _56
REMARK   23  A    between atoms: _56  and  _57
REMARK   24  A    between atoms: _56  and  _59
REMARK   25  A    between atoms: _59  and  _60
REMARK   26  A    between atoms: _66  and  _68
REMARK   27  A    between atoms: _68  and  _69
REMARK   28  A    between atoms: _68  and  _71
REMARK   29  A    between atoms: _71  and  _72
REMARK   30  A    between atoms: _76  and  _77
REMARK   31  A    between atoms: _82  and  _84
REMARK   32  A    between atoms: _89  and  _92
REMARK   33  A    between atoms: _92  and  _93
REMARK   34  A    between atoms: _100  and  _103
REMARK   35  A    between atoms: _101  and  _106
REMARK   36  A    between atoms: _106  and  _108
REMARK   37  A    between atoms: _108  and  _109
REMARK   38  A    between atoms: _108  and  _111
REMARK   39  A    between atoms: _111  and  _112
REMARK   40  A    between atoms: _115  and  _117
REMARK   41  A    between atoms: _117  and  _118
REMARK   42  A    between atoms: _121  and  _123
REMARK   43  A    between atoms: _123  and  _124
REMARK   44  A    between atoms: _123  and  _126
REMARK   45  A    between atoms: _126  and  _127
REMARK   46  A    between atoms: _131  and  ZN_724
REMARK   47  A    between atoms: _132  and  _134
REMARK   48  A    between atoms: _134  and  _135
REMARK   49  A    between atoms: _138  and  _140
REMARK   50  A    between atoms: _140  and  _141
REMARK   51  A    between atoms: _140  and  _143
REMARK   52  A    between atoms: _143  and  _144
REMARK   53  A    between atoms: _149  and  _150
REMARK   54  A    between atoms: _152  and  _154
REMARK   55  A    between atoms: _154  and  _155
REMARK   56  A    between atoms: _158  and  _160
REMARK   57  A    between atoms: _160  and  _161
REMARK   58  A    between atoms: _160  and  _163
REMARK   59  A    between atoms: _163  and  _164
REMARK   60  A    between atoms: _167  and  _169
REMARK   61  A    between atoms: _169  and  _170
REMARK   62  A    between atoms: _172  and  _174
REMARK   63  A    between atoms: _174  and  _175
REMARK   64  A    between atoms: _174  and  _177
REMARK   65  A    between atoms: _177  and  _178
REMARK   66  A    between atoms: _181  and  _183
REMARK   67  A    between atoms: _183  and  _184
REMARK   68  A    between atoms: _183  and  _186
REMARK   69  A    between atoms: _186  and  _187
REMARK   70  A    between atoms: _188  and  ZN_724
REMARK   71  A    between atoms: _192  and  _194
REMARK   72  A    between atoms: _194  and  _195
REMARK   73  A    between atoms: _194  and  _197
REMARK   74  A    between atoms: _197  and  _198
REMARK   75  A    between atoms: _201  and  _203
REMARK   76  A    between atoms: _203  and  _204
REMARK   77  A    between atoms: _203  and  _206
REMARK   78  A    between atoms: _206  and  _207
REMARK   79  A    between atoms: _207  and  _208
REMARK   80  A    between atoms: _211  and  _213
REMARK   81  A    between atoms: _213  and  _214
REMARK   82  A    between atoms: _213  and  _216
REMARK   83  A    between atoms: _216  and  _217
REMARK   84  A    between atoms: _227  and  _229
REMARK   85  A    between atoms: _229  and  _230
REMARK   86  A    between atoms: _232  and  _234
REMARK   87  A    between atoms: _234  and  _235
REMARK   88  A    between atoms: _234  and  _237
REMARK   89  A    between atoms: _237  and  _238
REMARK   90  A    between atoms: _241  and  _243
REMARK   91  A    between atoms: _243  and  _244
REMARK   92  A    between atoms: _243  and  _246
REMARK   93  A    between atoms: _246  and  _247
REMARK   94  A    between atoms: _252  and  _254
REMARK   95  A    between atoms: _254  and  _255
REMARK   96  A    between atoms: _254  and  _257
REMARK   97  A    between atoms: _257  and  _258
REMARK   98  A    between atoms: _261  and  _263
REMARK   99  A    between atoms: _263  and  _264
REMARK  100  A    between atoms: _263  and  _266
REMARK  101  A    between atoms: _266  and  _267
REMARK  102  A    between atoms: _273  and  _275
REMARK  103  A    between atoms: _275  and  _276
REMARK  104  A    between atoms: _275  and  _278
REMARK  105  A    between atoms: _278  and  _279
REMARK  106  A    between atoms: _282  and  _284
REMARK  107  A    between atoms: _284  and  _285
REMARK  108  A    between atoms: _284  and  _287
REMARK  109  A    between atoms: _290  and  _292
REMARK  110  A    between atoms: _292  and  _293
REMARK  111  A    between atoms: _296  and  _298
REMARK  112  A    between atoms: _298  and  _299
REMARK  113  A    between atoms: _302  and  _304
REMARK  114  A    between atoms: _315  and  _318
REMARK  115  A    between atoms: _318  and  _319
REMARK  116  A    between atoms: _319  and  _320
REMARK  117  A    between atoms: _325  and  _328
REMARK  118  A    between atoms: _328  and  _329
REMARK  119  A    between atoms: _339  and  _340
REMARK  120  A    between atoms: _348  and  _350
REMARK  121  A    between atoms: _350  and  _351
REMARK  122  A    between atoms: _350  and  _353
REMARK  123  A    between atoms: _353  and  _354
REMARK  124  A    between atoms: _356  and  _358
REMARK  125  A    between atoms: _358  and  _359
REMARK  126  A    between atoms: _358  and  _361
REMARK  127  A    between atoms: _361  and  _362
REMARK  128  A    between atoms: _366  and  ZN_723
REMARK  129  A    between atoms: _367  and  _369
REMARK  130  A    between atoms: _369  and  _370
REMARK  131  A    between atoms: _369  and  _372
REMARK  132  A    between atoms: _372  and  _373
REMARK  133  A    between atoms: _375  and  _377
REMARK  134  A    between atoms: _377  and  _378
REMARK  135  A    between atoms: _377  and  _380
REMARK  136  A    between atoms: _380  and  _381
REMARK  137  A    between atoms: _386  and  _388
REMARK  138  A    between atoms: _388  and  _389
REMARK  139  A    between atoms: _388  and  _391
REMARK  140  A    between atoms: _391  and  _392
REMARK  141  A    between atoms: _395  and  _397
REMARK  142  A    between atoms: _397  and  _398
REMARK  143  A    between atoms: _397  and  _400
REMARK  144  A    between atoms: _400  and  _401
REMARK  145  A    between atoms: _401  and  _402
REMARK  146  A    between atoms: _405  and  _407
REMARK  147  A    between atoms: _407  and  _408
REMARK  148  A    between atoms: _411  and  _413
REMARK  149  A    between atoms: _413  and  _414
REMARK  150  A    between atoms: _413  and  _416
REMARK  151  A    between atoms: _416  and  _417
REMARK  152  A    between atoms: _420  and  _422
REMARK  153  A    between atoms: _422  and  _423
REMARK  154  A    between atoms: _422  and  _425
REMARK  155  A    between atoms: _425  and  _426
REMARK  156  A    between atoms: _426  and  _427
REMARK  157  A    between atoms: _429  and  _431
REMARK  158  A    between atoms: _431  and  _432
REMARK  159  A    between atoms: _431  and  _434
REMARK  160  A    between atoms: _434  and  _435
REMARK  161  A    between atoms: _440  and  _441
REMARK  162  A    between atoms: _444  and  _445
REMARK  163  A    between atoms: _450  and  _452
REMARK  164  A    between atoms: _452  and  _453
REMARK  165  A    between atoms: _452  and  _455
REMARK  166  A    between atoms: _455  and  _456
REMARK  167  A    between atoms: _459  and  _461
REMARK  168  A    between atoms: _461  and  _462
REMARK  169  A    between atoms: _461  and  _464
REMARK  170  A    between atoms: _464  and  _465
REMARK  171  A    between atoms: _470  and  _471
REMARK  172  A    between atoms: _473  and  _475
REMARK  173  A    between atoms: _475  and  _476
REMARK  174  A    between atoms: _475  and  _478
REMARK  175  A    between atoms: _478  and  _479
REMARK  176  A    between atoms: _484  and  _486
REMARK  177  A    between atoms: _486  and  _487
REMARK  178  A    between atoms: _486  and  _489
REMARK  179  A    between atoms: _489  and  _490
REMARK  180  A    between atoms: _492  and  _494
REMARK  181  A    between atoms: _494  and  _495
REMARK  182  A    between atoms: _494  and  _497
REMARK  183  A    between atoms: _497  and  _498
REMARK  184  A    between atoms: _501  and  _503
REMARK  185  A    between atoms: _503  and  _504
REMARK  186  A    between atoms: _503  and  _506
REMARK  187  A    between atoms: _506  and  _507
REMARK  188  A    between atoms: _510  and  _512
REMARK  189  A    between atoms: _512  and  _513
REMARK  190  A    between atoms: _512  and  _515
REMARK  191  A    between atoms: _515  and  _516
REMARK  192  A    between atoms: _519  and  _521
REMARK  193  A    between atoms: _521  and  _522
REMARK  194  A    between atoms: _521  and  _524
REMARK  195  A    between atoms: _524  and  _525
REMARK  196  A    between atoms: _528  and  _530
REMARK  197  A    between atoms: _530  and  _531
REMARK  198  A    between atoms: _530  and  _533
REMARK  199  A    between atoms: _533  and  _534
REMARK  200  A    between atoms: _534  and  _535
REMARK  201  A    between atoms: _535  and  _536
REMARK  202  A    between atoms: _545  and  _547
REMARK  203  A    between atoms: _547  and  _548
REMARK  204  A    between atoms: _547  and  _550
REMARK  205  A    between atoms: _550  and  _551
REMARK  206  A    between atoms: _557  and  _559
REMARK  207  A    between atoms: _559  and  _560
REMARK  208  A    between atoms: _559  and  _562
REMARK  209  A    between atoms: _562  and  _563
REMARK  210  A    between atoms: _563  and  _564
REMARK  211  A    between atoms: _564  and  _565
REMARK  212  A    between atoms: _574  and  _576
REMARK  213  A    between atoms: _576  and  _577
REMARK  214  A    between atoms: _576  and  _579
REMARK  215  A    between atoms: _579  and  _580
REMARK  216  A    between atoms: _582  and  _584
REMARK  217  A    between atoms: _584  and  _585
REMARK  218  A    between atoms: _584  and  _587
REMARK  219  A    between atoms: _587  and  _588
REMARK  220  A    between atoms: _591  and  _593
REMARK  221  A    between atoms: _593  and  _594
REMARK  222  A    between atoms: _593  and  _596
REMARK  223  A    between atoms: _596  and  _597
REMARK  224  A    between atoms: _601  and  _602
REMARK  225  A    between atoms: _607  and  _609
REMARK  226  A    between atoms: _609  and  _610
REMARK  227  A    between atoms: _609  and  _612
REMARK  228  A    between atoms: _612  and  _613
REMARK  229  A    between atoms: _618  and  _620
REMARK  230  A    between atoms: _620  and  _621
REMARK  231  A    between atoms: _620  and  _623
REMARK  232  A    between atoms: _623  and  _624
REMARK  233  A    between atoms: _627  and  _629
REMARK  234  A    between atoms: _629  and  _630
REMARK  235  A    between atoms: _629  and  _632
REMARK  236  A    between atoms: _632  and  _633
REMARK  237  A    between atoms: _639  and  _641
REMARK  238  A    between atoms: _641  and  _642
REMARK  239  A    between atoms: _641  and  _644
REMARK  240  A    between atoms: _644  and  _645
REMARK  241  A    between atoms: _650  and  _652
REMARK  242  A    between atoms: _652  and  _653
REMARK  243  A    between atoms: _652  and  _655
REMARK  244  A    between atoms: _655  and  _656
REMARK  245  A    between atoms: _658  and  _660
REMARK  246  A    between atoms: _660  and  _661
REMARK  247  A    between atoms: _664  and  _666
REMARK  248  A    between atoms: _666  and  _667
REMARK  249  A    between atoms: _666  and  _669
REMARK  250  A    between atoms: _669  and  _670
REMARK  251  A    between atoms: _675  and  _677
REMARK  252  A    between atoms: _677  and  _678
REMARK  253  A    between atoms: _677  and  _680
REMARK  254  A    between atoms: _680  and  _681
REMARK  255  A    between atoms: _684  and  _686
REMARK  256  A    between atoms: _686  and  _687
REMARK  257  A    between atoms: _686  and  _689
REMARK  258  A    between atoms: _689  and  _690
REMARK  259  A    between atoms: _690  and  _691
REMARK  260  A    between atoms: _693  and  _695
REMARK  261  A    between atoms: _695  and  _696
REMARK  262  A    between atoms: _695  and  _698
REMARK  263  A    between atoms: _698  and  _699
REMARK  264  A    between atoms: _704  and  _705
REMARK  265  A    between atoms: _708  and  _709
REMARK  266  A    between atoms: _714  and  _716
REMARK  267  A    between atoms: _716  and  _717
REMARK  268  A    between atoms: _716  and  _719
REMARK  269  A    between atoms: _719  and  _720
REMARK                            x       y       z     vdW  Elec       q    Type
REMARK                         _______ _______ _______ _____ _____    ______ ____
ROOT
ATOM      1  CG  TRP A   1      35.677  24.601  19.012  0.00  0.00    -0.002 A 
ATOM      2  CD2 TRP A   1      35.586  25.744  19.867  0.00  0.00    +0.013 A 
ATOM      3  CE3 TRP A   1      36.014  26.016  21.175  0.00  0.00    +0.001 A 
ATOM      4  CZ3 TRP A   1      35.760  27.274  21.713  0.00  0.00    +0.000 A 
ATOM      5  CH2 TRP A   1      35.090  28.263  20.963  0.00  0.00    +0.001 A 
ATOM      6  CZ2 TRP A   1      34.662  28.022  19.682  0.00  0.00    +0.017 A 
ATOM      7  CE2 TRP A   1      34.917  26.757  19.146  0.00  0.00    +0.056 A 
ATOM      8  NE1 TRP A   1      34.608  26.242  17.913  0.00  0.00    -0.352 N 
ATOM      9  HE1 TRP A   1      34.110  26.750  17.154  0.00  0.00    +0.166 HD
ATOM     10  CD1 TRP A   1      35.062  24.947  17.842  0.00  0.00    +0.068 A 
ENDROOT
BRANCH   1  11
ATOM     11  CB  TRP A   1      36.403  23.335  19.304  0.00  0.00    +0.053 C 
BRANCH  11  12
ATOM     12  CA  TRP A   1      37.920  23.540  19.256  0.00  0.00    +0.137 C 
BRANCH  12  13
ATOM     13  N   TRP A   1      38.324  23.928  17.914  0.00  0.00    -0.239 NA
ATOM     14  H   TRP A   1      37.690  23.712  17.119  0.00  0.00    +0.142 HD
ENDBRANCH  12  13
BRANCH  12  15
ATOM     15  C   TRP A   1      38.660  22.297  19.718  0.00  0.00    +0.224 C 
ATOM     16  O   TRP A   1      38.737  21.299  18.993  0.00  0.00    -0.287 OA
ENDBRANCH  12  15
ENDBRANCH  11  12
ENDBRANCH   1  11
TORSDOF 4
REMARK  Name = ../refined-set-2016/1hfs/1hfs_pocket.pdb
REMARK  269 active torsions:
REMARK  status: ('A' for Active; 'I' for Inactive)
REMARK    1  A    between atoms: _1  and  _3
REMARK    2  A    between atoms: _3  and  _4
REMARK    3  A    between atoms: _3  and  _6
REMARK    4  A    between atoms: _6  and  _7
REMARK    5  A    between atoms: _11  and  ZN_724
REMARK    6  A    between atoms: _12  and  _14
REMARK    7  A    between atoms: _14  and  _15
REMARK    8  A    between atoms: _14  and  _17
REMARK    9  A    between atoms: _17  and  _18
REMARK   10  A    between atoms: _18  and  _20
REMARK   11  A    between atoms: _20  and  ZN_724
REMARK   12  A    between atoms: _21  and  _23
REMARK   13  A    between atoms: _23  and  _24
REMARK   14  A    between atoms: _23  and  _26
REMARK   15  A    between atoms: _26  and  _27
REMARK   16  A    between atoms: _33  and  _35
REMARK   17  A    between atoms: _35  and  _36
REMARK   18  A    between atoms: _35  and  _38
REMARK   19  A    between atoms: _38  and  _39
REMARK   20  A    between atoms: _44  and  _45
REMARK   21  A    between atoms: _48  and  _49
REMARK   22  A    between atoms: _54  and  _56
REMARK   23  A    between atoms: _56  and  _57
REMARK   24  A    between atoms: _56  and  _59
REMARK   25  A    between atoms: _59  and  _60
REMARK   26  A    between atoms: _66  and  _68
REMARK   27  A    between atoms: _68  and  _69
REMARK   28  A    between atoms: _68  and  _71
REMARK   29  A    between atoms: _71  and  _72
REMARK   30  A    between atoms: _76  and  _77
REMARK   31  A    between atoms: _82  and  _84
REMARK   32  A    between atoms: _89  and  _92
REMARK   33  A    between atoms: _92  and  _93
REMARK   34  A    between atoms: _100  and  _103
REMARK   35  A    between atoms: _101  and  _106
REMARK   36  A    between atoms: _106  and  _108
REMARK   37  A    between atoms: _108  and  _109
REMARK   38  A    between atoms: _108  and  _111
REMARK   39  A    between atoms: _111  and  _112
REMARK   40  A    between atoms: _115  and  _117
REMARK   41  A    between atoms: _117  and  _118
REMARK   42  A    between atoms: _121  and  _123
REMARK   43  A    between atoms: _123  and  _124
REMARK   44  A    between atoms: _123  and  _126
REMARK   45  A    between atoms: _126  and  _127
REMARK   46  A    between atoms: _131  and  ZN_724
REMARK   47  A    between atoms: _132  and  _134
REMARK   48  A    between atoms: _134  and  _135
REMARK   49  A    between atoms: _138  and  _140
REMARK   50  A    between atoms: _140  and  _141
REMARK   51  A    between atoms: _140  and  _143
REMARK   52  A    between atoms: _143  and  _144
REMARK   53  A    between atoms: _149  and  _150
REMARK   54  A    between atoms: _152  and  _154
REMARK   55  A    between atoms: _154  and  _155
REMARK   56  A    between atoms: _158  and  _160
REMARK   57  A    between atoms: _160  and  _161
REMARK   58  A    between atoms: _160  and  _163
REMARK   59  A    between atoms: _163  and  _164
REMARK   60  A    between atoms: _167  and  _169
REMARK   61  A    between atoms: _169  and  _170
REMARK   62  A    between atoms: _172  and  _174
REMARK   63  A    between atoms: _174  and  _175
REMARK   64  A    between atoms: _174  and  _177
REMARK   65  A    between atoms: _177  and  _178
REMARK   66  A    between atoms: _181  and  _183
REMARK   67  A    between atoms: _183  and  _184
REMARK   68  A    between atoms: _183  and  _186
REMARK   69  A    between atoms: _186  and  _187
REMARK   70  A    between atoms: _188  and  ZN_724
REMARK   71  A    between atoms: _192  and  _194
REMARK   72  A    between atoms: _194  and  _195
REMARK   73  A    between atoms: _194  and  _197
REMARK   74  A    between atoms: _197  and  _198
REMARK   75  A    between atoms: _201  and  _203
REMARK   76  A    between atoms: _203  and  _204
REMARK   77  A    between atoms: _203  and  _206
REMARK   78  A    between atoms: _206  and  _207
REMARK   79  A    between atoms: _207  and  _208
REMARK   80  A    between atoms: _211  and  _213
REMARK   81  A    between atoms: _213  and  _214
REMARK   82  A    between atoms: _213  and  _216
REMARK   83  A    between atoms: _216  and  _217
REMARK   84  A    between atoms: _227  and  _229
REMARK   85  A    between atoms: _229  and  _230
REMARK   86  A    between atoms: _232  and  _234
REMARK   87  A    between atoms: _234  and  _235
REMARK   88  A    between atoms: _234  and  _237
REMARK   89  A    between atoms: _237  and  _238
REMARK   90  A    between atoms: _241  and  _243
REMARK   91  A    between atoms: _243  and  _244
REMARK   92  A    between atoms: _243  and  _246
REMARK   93  A    between atoms: _246  and  _247
REMARK   94  A    between atoms: _252  and  _254
REMARK   95  A    between atoms: _254  and  _255
REMARK   96  A    between atoms: _254  and  _257
REMARK   97  A    between atoms: _257  and  _258
REMARK   98  A    between atoms: _261  and  _263
REMARK   99  A    between atoms: _263  and  _264
REMARK  100  A    between atoms: _263  and  _266
REMARK  101  A    between atoms: _266  and  _267
REMARK  102  A    between atoms: _273  and  _275
REMARK  103  A    between atoms: _275  and  _276
REMARK  104  A    between atoms: _275  and  _278
REMARK  105  A    between atoms: _278  and  _279
REMARK  106  A    between atoms: _282  and  _284
REMARK  107  A    between atoms: _284  and  _285
REMARK  108  A    between atoms: _284  and  _287
REMARK  109  A    between atoms: _290  and  _292
REMARK  110  A    between atoms: _292  and  _293
REMARK  111  A    between atoms: _296  and  _298
REMARK  112  A    between atoms: _298  and  _299
REMARK  113  A    between atoms: _302  and  _304
REMARK  114  A    between atoms: _315  and  _318
REMARK  115  A    between atoms: _318  and  _319
REMARK  116  A    between atoms: _319  and  _320
REMARK  117  A    between atoms: _325  and  _328
REMARK  118  A    between atoms: _328  and  _329
REMARK  119  A    between atoms: _339  and  _340
REMARK  120  A    between atoms: _348  and  _350
REMARK  121  A    between atoms: _350  and  _351
REMARK  122  A    between atoms: _350  and  _353
REMARK  123  A    between atoms: _353  and  _354
REMARK  124  A    between atoms: _356  and  _358
REMARK  125  A    between atoms: _358  and  _359
REMARK  126  A    between atoms: _358  and  _361
REMARK  127  A    between atoms: _361  and  _362
REMARK  128  A    between atoms: _366  and  ZN_723
REMARK  129  A    between atoms: _367  and  _369
REMARK  130  A    between atoms: _369  and  _370
REMARK  131  A    between atoms: _369  and  _372
REMARK  132  A    between atoms: _372  and  _373
REMARK  133  A    between atoms: _375  and  _377
REMARK  134  A    between atoms: _377  and  _378
REMARK  135  A    between atoms: _377  and  _380
REMARK  136  A    between atoms: _380  and  _381
REMARK  137  A    between atoms: _386  and  _388
REMARK  138  A    between atoms: _388  and  _389
REMARK  139  A    between atoms: _388  and  _391
REMARK  140  A    between atoms: _391  and  _392
REMARK  141  A    between atoms: _395  and  _397
REMARK  142  A    between atoms: _397  and  _398
REMARK  143  A    between atoms: _397  and  _400
REMARK  144  A    between atoms: _400  and  _401
REMARK  145  A    between atoms: _401  and  _402
REMARK  146  A    between atoms: _405  and  _407
REMARK  147  A    between atoms: _407  and  _408
REMARK  148  A    between atoms: _411  and  _413
REMARK  149  A    between atoms: _413  and  _414
REMARK  150  A    between atoms: _413  and  _416
REMARK  151  A    between atoms: _416  and  _417
REMARK  152  A    between atoms: _420  and  _422
REMARK  153  A    between atoms: _422  and  _423
REMARK  154  A    between atoms: _422  and  _425
REMARK  155  A    between atoms: _425  and  _426
REMARK  156  A    between atoms: _426  and  _427
REMARK  157  A    between atoms: _429  and  _431
REMARK  158  A    between atoms: _431  and  _432
REMARK  159  A    between atoms: _431  and  _434
REMARK  160  A    between atoms: _434  and  _435
REMARK  161  A    between atoms: _440  and  _441
REMARK  162  A    between atoms: _444  and  _445
REMARK  163  A    between atoms: _450  and  _452
REMARK  164  A    between atoms: _452  and  _453
REMARK  165  A    between atoms: _452  and  _455
REMARK  166  A    between atoms: _455  and  _456
REMARK  167  A    between atoms: _459  and  _461
REMARK  168  A    between atoms: _461  and  _462
REMARK  169  A    between atoms: _461  and  _464
REMARK  170  A    between atoms: _464  and  _465
REMARK  171  A    between atoms: _470  and  _471
REMARK  172  A    between atoms: _473  and  _475
REMARK  173  A    between atoms: _475  and  _476
REMARK  174  A    between atoms: _475  and  _478
REMARK  175  A    between atoms: _478  and  _479
REMARK  176  A    between atoms: _484  and  _486
REMARK  177  A    between atoms: _486  and  _487
REMARK  178  A    between atoms: _486  and  _489
REMARK  179  A    between atoms: _489  and  _490
REMARK  180  A    between atoms: _492  and  _494
REMARK  181  A    between atoms: _494  and  _495
REMARK  182  A    between atoms: _494  and  _497
REMARK  183  A    between atoms: _497  and  _498
REMARK  184  A    between atoms: _501  and  _503
REMARK  185  A    between atoms: _503  and  _504
REMARK  186  A    between atoms: _503  and  _506
REMARK  187  A    between atoms: _506  and  _507
REMARK  188  A    between atoms: _510  and  _512
REMARK  189  A    between atoms: _512  and  _513
REMARK  190  A    between atoms: _512  and  _515
REMARK  191  A    between atoms: _515  and  _516
REMARK  192  A    between atoms: _519  and  _521
REMARK  193  A    between atoms: _521  and  _522
REMARK  194  A    between atoms: _521  and  _524
REMARK  195  A    between atoms: _524  and  _525
REMARK  196  A    between atoms: _528  and  _530
REMARK  197  A    between atoms: _530  and  _531
REMARK  198  A    between atoms: _530  and  _533
REMARK  199  A    between atoms: _533  and  _534
REMARK  200  A    between atoms: _534  and  _535
REMARK  201  A    between atoms: _535  and  _536
REMARK  202  A    between atoms: _545  and  _547
REMARK  203  A    between atoms: _547  and  _548
REMARK  204  A    between atoms: _547  and  _550
REMARK  205  A    between atoms: _550  and  _551
REMARK  206  A    between atoms: _557  and  _559
REMARK  207  A    between atoms: _559  and  _560
REMARK  208  A    between atoms: _559  and  _562
REMARK  209  A    between atoms: _562  and  _563
REMARK  210  A    between atoms: _563  and  _564
REMARK  211  A    between atoms: _564  and  _565
REMARK  212  A    between atoms: _574  and  _576
REMARK  213  A    between atoms: _576  and  _577
REMARK  214  A    between atoms: _576  and  _579
REMARK  215  A    between atoms: _579  and  _580
REMARK  216  A    between atoms: _582  and  _584
REMARK  217  A    between atoms: _584  and  _585
REMARK  218  A    between atoms: _584  and  _587
REMARK  219  A    between atoms: _587  and  _588
REMARK  220  A    between atoms: _591  and  _593
REMARK  221  A    between atoms: _593  and  _594
REMARK  222  A    between atoms: _593  and  _596
REMARK  223  A    between atoms: _596  and  _597
REMARK  224  A    between atoms: _601  and  _602
REMARK  225  A    between atoms: _607  and  _609
REMARK  226  A    between atoms: _609  and  _610
REMARK  227  A    between atoms: _609  and  _612
REMARK  228  A    between atoms: _612  and  _613
REMARK  229  A    between atoms: _618  and  _620
REMARK  230  A    between atoms: _620  and  _621
REMARK  231  A    between atoms: _620  and  _623
REMARK  232  A    between atoms: _623  and  _624
REMARK  233  A    between atoms: _627  and  _629
REMARK  234  A    between atoms: _629  and  _630
REMARK  235  A    between atoms: _629  and  _632
REMARK  236  A    between atoms: _632  and  _633
REMARK  237  A    between atoms: _639  and  _641
REMARK  238  A    between atoms: _641  and  _642
REMARK  239  A    between atoms: _641  and  _644
REMARK  240  A    between atoms: _644  and  _645
REMARK  241  A    between atoms: _650  and  _652
REMARK  242  A    between atoms: _652  and  _653
REMARK  243  A    between atoms: _652  and  _655
REMARK  244  A    between atoms: _655  and  _656
REMARK  245  A    between atoms: _658  and  _660
REMARK  246  A    between atoms: _660  and  _661
REMARK  247  A    between atoms: _664  and  _666
REMARK  248  A    between atoms: _666  and  _667
REMARK  249  A    between atoms: _666  and  _669
REMARK  250  A    between atoms: _669  and  _670
REMARK  251  A    between atoms: _675  and  _677
REMARK  252  A    between atoms: _677  and  _678
REMARK  253  A    between atoms: _677  and  _680
REMARK  254  A    between atoms: _680  and  _681
REMARK  255  A    between atoms: _684  and  _686
REMARK  256  A    between atoms: _686  and  _687
REMARK  257  A    between atoms: _686  and  _689
REMARK  258  A    between atoms: _689  and  _690
REMARK  259  A    between atoms: _690  and  _691
REMARK  260  A    between atoms: _693  and  _695
REMARK  261  A    between atoms: _695  and  _696
REMARK  262  A    between atoms: _695  and  _698
REMARK  263  A    between atoms: _698  and  _699
REMARK  264  A    between atoms: _704  and  _705
REMARK  265  A    between atoms: _708  and  _709
REMARK  266  A    between atoms: _714  and  _716
REMARK  267  A    between atoms: _716  and  _717
REMARK  268  A    between atoms: _716  and  _719
REMARK  269  A    between atoms: _719  and  _720
REMARK                            x       y       z     vdW  Elec       q    Type
REMARK                         _______ _______ _______ _____ _____    ______ ____
ROOT
ATOM      1  C   ALA A   9      31.251  29.021  30.854  0.00  0.00    +0.000 C 
ATOM      2  O   ALA A   9      30.308  29.479  31.502  0.00  0.00    +0.000 OA
ATOM      3  N   UNK A  10      32.101  29.787  30.178  0.00  0.00    +0.000 N 
ATOM      4  H   UNK A  10      32.877  29.332  29.655  0.00  0.00    +0.000 HD
ENDROOT
BRANCH   3   5
ATOM      5  C   UNK A  10      31.989  31.243  30.140  0.00  0.00    +0.000 C 
ATOM      6  C   UNK A  10      30.676  31.646  29.463  0.00  0.00    +0.000 C 
ATOM      7  O   UNK A  10      29.914  32.442  30.013  0.00  0.00    +0.000 OA
ATOM      8  N   GLU A  11      30.410  31.093  28.278  0.00  0.00    +0.000 N 
ATOM      9  H   GLU A  11      31.090  30.420  27.870  0.00  0.00    +0.000 HD
ATOM     10  CA  GLU A  11      29.187  31.407  27.536  0.00  0.00    +0.000 C 
ATOM     11  C   GLU A  11      27.931  31.096  28.342  0.00  0.00    +0.000 C 
ATOM     12  N   ILE A  12      27.929  29.967  29.045  0.00  0.00    +0.000 N 
ATOM     13  CA  ILE A  12      26.781  29.594  29.866  0.00  0.00    +0.000 C 
ATOM     14  C   ILE A  12      26.591  30.653  30.959  0.00  0.00    +0.000 C 
ATOM     15  N   GLY A  13      27.695  31.220  31.442  0.00  0.00    +0.000 N 
ATOM     16  CA  GLY A  13      27.616  32.270  32.445  0.00  0.00    +0.000 C 
ATOM     17  C   GLY A  13      26.771  33.415  31.912  0.00  0.00    +0.000 C 
ATOM     18  O   GLY A  13      25.911  33.943  32.616  0.00  0.00    +0.000 OA
ATOM     19  N   UNK A  14      26.987  33.777  30.647  0.00  0.00    +0.000 N 
ATOM     20  H   UNK A  14      27.722  33.285  30.100  0.00  0.00    +0.000 HD
ATOM     21  C   UNK A  14      26.222  34.845  30.005  0.00  0.00    +0.000 C 
ATOM     22  C   UNK A  14      26.820  35.212  28.642  0.00  0.00    +0.000 C 
ATOM     23  C   UNK A  14      28.084  36.016  28.722  0.00  0.00    +0.000 A 
ATOM     24  N   UNK A  14      28.248  37.123  29.523  0.00  0.00    +0.000 NA
ATOM     25  C   UNK A  14      29.475  37.620  29.312  0.00  0.00    +0.000 A 
ATOM     26  N   UNK A  14      30.141  36.903  28.419  0.00  0.00    +0.000 N 
ATOM     27 ZN   UNK A  14      31.977  36.987  27.820  0.00  0.00    +0.000 Zn
ATOM     28  N   UNK A  14      32.782  35.483  28.654  0.00  0.00    +0.000 N 
ATOM     29  C   UNK A  14      33.727  35.443  29.581  0.00  0.00    +0.000 A 
ATOM     30  N   UNK A  14      33.986  34.182  29.967  0.00  0.00    +0.000 NA
ATOM     31  C   UNK A  14      33.167  33.333  29.257  0.00  0.00    +0.000 A 
ATOM     32  C   UNK A  14      32.426  34.134  28.449  0.00  0.00    +0.000 A 
ATOM     33  C   UNK A  14      29.250  35.879  28.047  0.00  0.00    +0.000 A 
ATOM     34  H   GLY A  13      28.625  30.908  31.098  0.00  0.00    +0.000 HD
ATOM     35  O   ILE A  12      25.460  30.978  31.322  0.00  0.00    +0.000 OA
ATOM     36  H   ILE A  12      28.758  29.340  29.009  0.00  0.00    +0.000 HD
ATOM     37  O   GLU A  11      26.979  31.876  28.336  0.00  0.00    +0.000 OA
ATOM     38  C   UNK A  10      33.192  31.837  29.386  0.00  0.00    +0.000 C 
BRANCH  27  39
ATOM     39  N   UNK A  14      32.523  38.504  28.716  0.00  0.00    +0.000 N 
ATOM     40  C   UNK A  14      32.676  38.707  30.096  0.00  0.00    +0.000 A 
ATOM     41  C   UNK A  14      32.809  40.033  30.353  0.00  0.00    +0.000 A 
ATOM     42  N   UNK A  14      32.744  40.654  29.126  0.00  0.00    +0.000 NA
ATOM     43  C   UNK A  14      32.573  39.714  28.186  0.00  0.00    +0.000 A 
BRANCH  41  44
ATOM     44  C   UNK A  14      32.954  40.755  31.655  0.00  0.00    +0.000 C 
BRANCH  44  45
ATOM     45  C   UNK A  14      32.109  40.163  32.786  0.00  0.00    +0.000 C 
BRANCH  45  46
ATOM     46  C   UNK A  14      32.635  40.636  34.138  0.00  0.00    +0.000 C 
ATOM     47  O   UNK A  14      32.039  41.490  34.796  0.00  0.00    +0.000 OA
ATOM     48  N   SER A   2      33.755  40.055  34.546  0.00  0.00    +0.000 N 
ATOM     49  H   SER A   2      34.187  39.331  33.938  0.00  0.00    +0.000 HD
BRANCH  48  50
ATOM     50  CA  SER A   2      34.405  40.382  35.800  0.00  0.00    +0.000 C 
BRANCH  50  51
ATOM     51  CB  SER A   2      35.719  41.101  35.502  0.00  0.00    +0.000 C 
ATOM     52  OG  SER A   2      36.293  40.941  34.422  0.00  0.00    +0.000 OA
ENDBRANCH  50  51
BRANCH  50  53
ATOM     53  C   SER A   2      34.669  39.097  36.585  0.00  0.00    +0.000 C 
BRANCH  53  54
ATOM     54  O   SER A   2      35.534  39.316  37.685  0.00  0.00    +0.000 OA
ATOM     55  H   SER A   2      35.679  38.462  38.165  0.00  0.00    +0.000 HD
ENDBRANCH  53  54
ENDBRANCH  50  53
ENDBRANCH  48  50
ENDBRANCH  45  46
BRANCH  45  56
ATOM     56  N   UNK A  14      30.698  40.457  32.583  0.00  0.00    +0.000 NA
ATOM     57  H   UNK A   1      30.420  41.212  31.924  0.00  0.00    +0.000 HD
ENDBRANCH  45  56
ENDBRANCH  44  45
ENDBRANCH  41  44
ENDBRANCH  27  39
BRANCH  21  58
ATOM     58  C   UNK A  14      24.764  34.421  29.821  0.00  0.00    +0.000 C 
ATOM     59  O   UNK A  14      23.849  35.222  30.036  0.00  0.00    +0.000 OA
ATOM     60  N   SER A  15      24.555  33.169  29.413  0.00  0.00    +0.000 N 
ATOM     61  H   SER A  15      25.377  32.558  29.235  0.00  0.00    +0.000 HD
BRANCH  60  62
ATOM     62  CA  SER A  15      23.213  32.620  29.206  0.00  0.00    +0.000 C 
BRANCH  62  63
ATOM     63  CB  SER A  15      22.404  32.655  30.500  0.00  0.00    +0.000 C 
ATOM     64  OG  SER A  15      21.171  32.686  30.467  0.00  0.00    +0.000 OA
ENDBRANCH  62  63
BRANCH  62  65
ATOM     65  C   SER A  15      23.289  31.177  28.684  0.00  0.00    +0.000 C 
BRANCH  65  66
ATOM     66  O   SER A  15      23.884  31.115  27.399  0.00  0.00    +0.000 OA
ATOM     67  H   SER A  15      24.803  31.479  27.444  0.00  0.00    +0.000 HD
ENDBRANCH  65  66
ENDBRANCH  62  65
ENDBRANCH  60  62
ENDBRANCH  21  58
BRANCH  13  68
ATOM     68  CB  ILE A  12      26.927  28.161  30.473  0.00  0.00    +0.000 C 
ATOM     69  CG2 ILE A  12      25.771  27.855  31.426  0.00  0.00    +0.000 C 
BRANCH  68  70
ATOM     70  CG1 ILE A  12      26.958  27.110  29.356  0.00  0.00    +0.000 C 
ATOM     71  CD1 ILE A  12      25.723  27.087  28.479  0.00  0.00    +0.000 C 
ENDBRANCH  68  70
ENDBRANCH  13  68
BRANCH  10  72
ATOM     72  CB  GLU A  11      29.138  30.672  26.186  0.00  0.00    +0.000 C 
BRANCH  72  73
ATOM     73  CG  GLU A  11      30.265  31.021  25.223  0.00  0.00    +0.000 C 
BRANCH  73  74
ATOM     74  CD  GLU A  11      30.473  32.516  25.071  0.00  0.00    +0.000 C 
ATOM     75  OE2 GLU A  11      31.602  32.983  25.306  0.00  0.00    +0.000 OA
ATOM     76  OE1 GLU A  11      29.512  33.225  24.719  0.00  0.00    +0.000 OA
ENDBRANCH  73  74
ENDBRANCH  72  73
ENDBRANCH  10  72
ENDBRANCH   3   5
BRANCH   1  77
ATOM     77  CA  ALA A   9      31.491  27.506  30.767  0.00  0.00    +0.000 C 
ATOM     78  CB  ALA A   9      32.621  27.083  31.710  0.00  0.00    +0.000 C 
BRANCH  77  80
ATOM     79  C   ALA A   8      30.945  27.300  28.398  0.00  0.00    +0.000 C 
ATOM     80  N   ALA A   9      31.809  27.116  29.393  0.00  0.00    +0.000 N 
ATOM     81  H   ALA A   9      32.733  26.684  29.189  0.00  0.00    +0.000 HD
ATOM     82  O   ALA A   8      29.835  27.798  28.569  0.00  0.00    +0.000 OA
BRANCH  79  83
ATOM     83  CA  ALA A   8      31.391  26.870  27.000  0.00  0.00    +0.000 C 
ATOM     84  CB  ALA A   8      31.191  25.366  26.810  0.00  0.00    +0.000 C 
BRANCH  83  87
ATOM     85  C   VAL A   7      33.171  28.519  26.773  0.00  0.00    +0.000 C 
ATOM     86  O   VAL A   7      32.407  29.445  27.042  0.00  0.00    +0.000 OA
ATOM     87  N   ALA A   8      32.780  27.246  26.752  0.00  0.00    +0.000 N 
ATOM     88  H   ALA A   8      33.480  26.503  26.554  0.00  0.00    +0.000 HD
BRANCH  85  89
ATOM     89  CA  VAL A   7      34.651  28.800  26.505  0.00  0.00    +0.000 C 
BRANCH  89  92
ATOM     90  C   LEU A   6      35.547  27.764  28.488  0.00  0.00    +0.000 C 
ATOM     91  O   LEU A   6      34.892  28.519  29.207  0.00  0.00    +0.000 OA
ATOM     92  N   VAL A   7      35.493  27.815  27.164  0.00  0.00    +0.000 N 
ATOM     93  H   VAL A   7      36.054  27.149  26.596  0.00  0.00    +0.000 HD
BRANCH  90  94
ATOM     94  CA  LEU A   6      36.449  26.701  29.098  0.00  0.00    +0.000 C 
BRANCH  94  97
ATOM     95  C   PHE A   5      35.010  24.801  28.593  0.00  0.00    +0.000 C 
ATOM     96  O   PHE A   5      34.035  25.333  29.127  0.00  0.00    +0.000 OA
ATOM     97  N   LEU A   6      36.204  25.381  28.523  0.00  0.00    +0.000 N 
ATOM     98  H   LEU A   6      36.983  24.883  28.047  0.00  0.00    +0.000 HD
BRANCH  95  99
ATOM     99  CA  PHE A   5      34.885  23.415  27.957  0.00  0.00    +0.000 C 
BRANCH  99 101
ATOM    100  C   LEU A   4      35.003  24.201  25.653  0.00  0.00    +0.000 C 
ATOM    101  N   PHE A   5      35.434  23.380  26.604  0.00  0.00    +0.000 N 
ATOM    102  H   PHE A   5      36.182  22.694  26.379  0.00  0.00    +0.000 HD
ATOM    103  O   LEU A   4      34.113  25.023  25.836  0.00  0.00    +0.000 OA
BRANCH 100 104
ATOM    104  CA  LEU A   4      35.653  24.069  24.280  0.00  0.00    +0.000 C 
BRANCH 104 107
ATOM    105  C   ASN A   3      37.875  24.972  24.759  0.00  0.00    +0.000 C 
ATOM    106  O   ASN A   3      37.411  26.009  25.247  0.00  0.00    +0.000 OA
ATOM    107  N   LEU A   4      37.115  23.984  24.295  0.00  0.00    +0.000 N 
ATOM    108  H   LEU A   4      37.573  23.124  23.931  0.00  0.00    +0.000 HD
BRANCH 105 109
ATOM    109  CA  ASN A   3      39.387  24.747  24.679  0.00  0.00    +0.000 C 
BRANCH 109 111
ATOM    110  C   SER A   2      39.888  25.804  22.543  0.00  0.00    +0.000 C 
ATOM    111  N   ASN A   3      40.065  25.742  23.858  0.00  0.00    +0.000 N 
ATOM    112  H   ASN A   3      40.705  26.423  24.314  0.00  0.00    +0.000 HD
ATOM    113  O   SER A   2      39.151  25.035  21.925  0.00  0.00    +0.000 OA
BRANCH 110 114
ATOM    114  CA  SER A   2      40.678  26.882  21.813  0.00  0.00    +0.000 C 
BRANCH 114 117
ATOM    115  C   UNK A   1      43.016  26.387  21.381  0.00  0.00    +0.000 C 
ATOM    116  O   UNK A   1      43.399  27.100  22.310  0.00  0.00    +0.000 OA
ATOM    117  N   SER A   2      41.738  26.227  21.068  0.00  0.00    +0.000 N 
ATOM    118  H   SER A   2      41.487  25.615  20.266  0.00  0.00    +0.000 HD
BRANCH 115 119
ATOM    119  C   UNK A   1      44.007  25.639  20.513  0.00  0.00    +0.000 C 
BRANCH 119 120
ATOM    120  N   UNK A   1      45.130  25.104  21.261  0.00  0.00    +0.000 NA
ATOM    121  H   UNK A   1      46.101  25.320  20.957  0.00  0.00    +0.000 HD
ENDBRANCH 119 120
ENDBRANCH 115 119
ENDBRANCH 114 117
BRANCH 114 122
ATOM    122  CB  SER A   2      39.752  27.663  20.862  0.00  0.00    +0.000 C 
ATOM    123  CG2 SER A   2      38.886  28.642  21.647  0.00  0.00    +0.000 C 
BRANCH 122 124
ATOM    124  OG1 SER A   2      40.550  28.399  19.926  0.00  0.00    +0.000 OA
ATOM    125  HG1 SER A   2      39.958  28.902  19.313  0.00  0.00    +0.000 HD
ENDBRANCH 122 124
ENDBRANCH 114 122
ENDBRANCH 110 114
ENDBRANCH 109 111
BRANCH 109 126
ATOM    126  CB  ASN A   3      40.002  24.714  26.075  0.00  0.00    +0.000 C 
BRANCH 126 127
ATOM    127  CG  ASN A   3      39.444  23.602  26.919  0.00  0.00    +0.000 C 
ATOM    128  OD1 ASN A   3      38.422  23.767  27.578  0.00  0.00    +0.000 OA
ATOM    129  ND2 ASN A   3      40.091  22.451  26.885  0.00  0.00    +0.000 N 
ATOM    130 HD21 ASN A   3      39.738  21.639  27.431  0.00  0.00    +0.000 HD
ATOM    131 HD22 ASN A   3      40.954  22.356  26.312  0.00  0.00    +0.000 HD
ENDBRANCH 126 127
ENDBRANCH 109 126
ENDBRANCH 105 109
ENDBRANCH 104 107
BRANCH 104 132
ATOM    132  CB  LEU A   4      35.050  22.874  23.533  0.00  0.00    +0.000 C 
BRANCH 132 133
ATOM    133  CG  LEU A   4      33.524  22.844  23.385  0.00  0.00    +0.000 C 
ATOM    134  CD2 LEU A   4      33.011  24.142  22.778  0.00  0.00    +0.000 C 
ATOM    135  CD1 LEU A   4      33.129  21.659  22.521  0.00  0.00    +0.000 C 
ENDBRANCH 132 133
ENDBRANCH 104 132
ENDBRANCH 100 104
ENDBRANCH  99 101
BRANCH  99 136
ATOM    136  CB  PHE A   5      35.565  22.361  28.837  0.00  0.00    +0.000 C 
BRANCH 136 137
ATOM    137  CG  PHE A   5      35.394  22.601  30.307  0.00  0.00    +0.000 A 
ATOM    138  CD2 PHE A   5      36.477  22.999  31.089  0.00  0.00    +0.000 A 
ATOM    139  CE2 PHE A   5      36.318  23.269  32.448  0.00  0.00    +0.000 A 
ATOM    140  CZ  PHE A   5      35.066  23.138  33.031  0.00  0.00    +0.000 A 
ATOM    141  CE1 PHE A   5      33.979  22.737  32.258  0.00  0.00    +0.000 A 
ATOM    142  CD1 PHE A   5      34.147  22.471  30.906  0.00  0.00    +0.000 A 
ENDBRANCH 136 137
ENDBRANCH  99 136
ENDBRANCH  95  99
ENDBRANCH  94  97
BRANCH  94 143
ATOM    143  CB  LEU A   6      37.920  27.098  28.942  0.00  0.00    +0.000 C 
BRANCH 143 144
ATOM    144  CG  LEU A   6      38.898  26.230  29.736  0.00  0.00    +0.000 C 
ATOM    145  CD2 LEU A   6      38.607  26.361  31.225  0.00  0.00    +0.000 C 
ATOM    146  CD1 LEU A   6      40.338  26.620  29.418  0.00  0.00    +0.000 C 
ENDBRANCH 143 144
ENDBRANCH  94 143
ENDBRANCH  90  94
ENDBRANCH  89  92
BRANCH  89 147
ATOM    147  CB  VAL A   7      34.933  28.875  24.988  0.00  0.00    +0.000 C 
ATOM    148  CG2 VAL A   7      36.409  29.197  24.746  0.00  0.00    +0.000 C 
ATOM    149  CG1 VAL A   7      34.054  29.938  24.338  0.00  0.00    +0.000 C 
ENDBRANCH  89 147
ENDBRANCH  85  89
ENDBRANCH  83  87
ENDBRANCH  79  83
ENDBRANCH  77  80
ENDBRANCH   1  77
TORSDOF 49
REMARK  Name = ../refined-set-2016/1hfs/1hfs_pocket.pdb
REMARK  269 active torsions:
REMARK  status: ('A' for Active; 'I' for Inactive)
REMARK    1  A    between atoms: _1  and  _3
REMARK    2  A    between atoms: _3  and  _4
REMARK    3  A    between atoms: _3  and  _6
REMARK    4  A    between atoms: _6  and  _7
REMARK    5  A    between atoms: _11  and  ZN_724
REMARK    6  A    between atoms: _12  and  _14
REMARK    7  A    between atoms: _14  and  _15
REMARK    8  A    between atoms: _14  and  _17
REMARK    9  A    between atoms: _17  and  _18
REMARK   10  A    between atoms: _18  and  _20
REMARK   11  A    between atoms: _20  and  ZN_724
REMARK   12  A    between atoms: _21  and  _23
REMARK   13  A    between atoms: _23  and  _24
REMARK   14  A    between atoms: _23  and  _26
REMARK   15  A    between atoms: _26  and  _27
REMARK   16  A    between atoms: _33  and  _35
REMARK   17  A    between atoms: _35  and  _36
REMARK   18  A    between atoms: _35  and  _38
REMARK   19  A    between atoms: _38  and  _39
REMARK   20  A    between atoms: _44  and  _45
REMARK   21  A    between atoms: _48  and  _49
REMARK   22  A    between atoms: _54  and  _56
REMARK   23  A    between atoms: _56  and  _57
REMARK   24  A    between atoms: _56  and  _59
REMARK   25  A    between atoms: _59  and  _60
REMARK   26  A    between atoms: _66  and  _68
REMARK   27  A    between atoms: _68  and  _69
REMARK   28  A    between atoms: _68  and  _71
REMARK   29  A    between atoms: _71  and  _72
REMARK   30  A    between atoms: _76  and  _77
REMARK   31  A    between atoms: _82  and  _84
REMARK   32  A    between atoms: _89  and  _92
REMARK   33  A    between atoms: _92  and  _93
REMARK   34  A    between atoms: _100  and  _103
REMARK   35  A    between atoms: _101  and  _106
REMARK   36  A    between atoms: _106  and  _108
REMARK   37  A    between atoms: _108  and  _109
REMARK   38  A    between atoms: _108  and  _111
REMARK   39  A    between atoms: _111  and  _112
REMARK   40  A    between atoms: _115  and  _117
REMARK   41  A    between atoms: _117  and  _118
REMARK   42  A    between atoms: _121  and  _123
REMARK   43  A    between atoms: _123  and  _124
REMARK   44  A    between atoms: _123  and  _126
REMARK   45  A    between atoms: _126  and  _127
REMARK   46  A    between atoms: _131  and  ZN_724
REMARK   47  A    between atoms: _132  and  _134
REMARK   48  A    between atoms: _134  and  _135
REMARK   49  A    between atoms: _138  and  _140
REMARK   50  A    between atoms: _140  and  _141
REMARK   51  A    between atoms: _140  and  _143
REMARK   52  A    between atoms: _143  and  _144
REMARK   53  A    between atoms: _149  and  _150
REMARK   54  A    between atoms: _152  and  _154
REMARK   55  A    between atoms: _154  and  _155
REMARK   56  A    between atoms: _158  and  _160
REMARK   57  A    between atoms: _160  and  _161
REMARK   58  A    between atoms: _160  and  _163
REMARK   59  A    between atoms: _163  and  _164
REMARK   60  A    between atoms: _167  and  _169
REMARK   61  A    between atoms: _169  and  _170
REMARK   62  A    between atoms: _172  and  _174
REMARK   63  A    between atoms: _174  and  _175
REMARK   64  A    between atoms: _174  and  _177
REMARK   65  A    between atoms: _177  and  _178
REMARK   66  A    between atoms: _181  and  _183
REMARK   67  A    between atoms: _183  and  _184
REMARK   68  A    between atoms: _183  and  _186
REMARK   69  A    between atoms: _186  and  _187
REMARK   70  A    between atoms: _188  and  ZN_724
REMARK   71  A    between atoms: _192  and  _194
REMARK   72  A    between atoms: _194  and  _195
REMARK   73  A    between atoms: _194  and  _197
REMARK   74  A    between atoms: _197  and  _198
REMARK   75  A    between atoms: _201  and  _203
REMARK   76  A    between atoms: _203  and  _204
REMARK   77  A    between atoms: _203  and  _206
REMARK   78  A    between atoms: _206  and  _207
REMARK   79  A    between atoms: _207  and  _208
REMARK   80  A    between atoms: _211  and  _213
REMARK   81  A    between atoms: _213  and  _214
REMARK   82  A    between atoms: _213  and  _216
REMARK   83  A    between atoms: _216  and  _217
REMARK   84  A    between atoms: _227  and  _229
REMARK   85  A    between atoms: _229  and  _230
REMARK   86  A    between atoms: _232  and  _234
REMARK   87  A    between atoms: _234  and  _235
REMARK   88  A    between atoms: _234  and  _237
REMARK   89  A    between atoms: _237  and  _238
REMARK   90  A    between atoms: _241  and  _243
REMARK   91  A    between atoms: _243  and  _244
REMARK   92  A    between atoms: _243  and  _246
REMARK   93  A    between atoms: _246  and  _247
REMARK   94  A    between atoms: _252  and  _254
REMARK   95  A    between atoms: _254  and  _255
REMARK   96  A    between atoms: _254  and  _257
REMARK   97  A    between atoms: _257  and  _258
REMARK   98  A    between atoms: _261  and  _263
REMARK   99  A    between atoms: _263  and  _264
REMARK  100  A    between atoms: _263  and  _266
REMARK  101  A    between atoms: _266  and  _267
REMARK  102  A    between atoms: _273  and  _275
REMARK  103  A    between atoms: _275  and  _276
REMARK  104  A    between atoms: _275  and  _278
REMARK  105  A    between atoms: _278  and  _279
REMARK  106  A    between atoms: _282  and  _284
REMARK  107  A    between atoms: _284  and  _285
REMARK  108  A    between atoms: _284  and  _287
REMARK  109  A    between atoms: _290  and  _292
REMARK  110  A    between atoms: _292  and  _293
REMARK  111  A    between atoms: _296  and  _298
REMARK  112  A    between atoms: _298  and  _299
REMARK  113  A    between atoms: _302  and  _304
REMARK  114  A    between atoms: _315  and  _318
REMARK  115  A    between atoms: _318  and  _319
REMARK  116  A    between atoms: _319  and  _320
REMARK  117  A    between atoms: _325  and  _328
REMARK  118  A    between atoms: _328  and  _329
REMARK  119  A    between atoms: _339  and  _340
REMARK  120  A    between atoms: _348  and  _350
REMARK  121  A    between atoms: _350  and  _351
REMARK  122  A    between atoms: _350  and  _353
REMARK  123  A    between atoms: _353  and  _354
REMARK  124  A    between atoms: _356  and  _358
REMARK  125  A    between atoms: _358  and  _359
REMARK  126  A    between atoms: _358  and  _361
REMARK  127  A    between atoms: _361  and  _362
REMARK  128  A    between atoms: _366  and  ZN_723
REMARK  129  A    between atoms: _367  and  _369
REMARK  130  A    between atoms: _369  and  _370
REMARK  131  A    between atoms: _369  and  _372
REMARK  132  A    between atoms: _372  and  _373
REMARK  133  A    between atoms: _375  and  _377
REMARK  134  A    between atoms: _377  and  _378
REMARK  135  A    between atoms: _377  and  _380
REMARK  136  A    between atoms: _380  and  _381
REMARK  137  A    between atoms: _386  and  _388
REMARK  138  A    between atoms: _388  and  _389
REMARK  139  A    between atoms: _388  and  _391
REMARK  140  A    between atoms: _391  and  _392
REMARK  141  A    between atoms: _395  and  _397
REMARK  142  A    between atoms: _397  and  _398
REMARK  143  A    between atoms: _397  and  _400
REMARK  144  A    between atoms: _400  and  _401
REMARK  145  A    between atoms: _401  and  _402
REMARK  146  A    between atoms: _405  and  _407
REMARK  147  A    between atoms: _407  and  _408
REMARK  148  A    between atoms: _411  and  _413
REMARK  149  A    between atoms: _413  and  _414
REMARK  150  A    between atoms: _413  and  _416
REMARK  151  A    between atoms: _416  and  _417
REMARK  152  A    between atoms: _420  and  _422
REMARK  153  A    between atoms: _422  and  _423
REMARK  154  A    between atoms: _422  and  _425
REMARK  155  A    between atoms: _425  and  _426
REMARK  156  A    between atoms: _426  and  _427
REMARK  157  A    between atoms: _429  and  _431
REMARK  158  A    between atoms: _431  and  _432
REMARK  159  A    between atoms: _431  and  _434
REMARK  160  A    between atoms: _434  and  _435
REMARK  161  A    between atoms: _440  and  _441
REMARK  162  A    between atoms: _444  and  _445
REMARK  163  A    between atoms: _450  and  _452
REMARK  164  A    between atoms: _452  and  _453
REMARK  165  A    between atoms: _452  and  _455
REMARK  166  A    between atoms: _455  and  _456
REMARK  167  A    between atoms: _459  and  _461
REMARK  168  A    between atoms: _461  and  _462
REMARK  169  A    between atoms: _461  and  _464
REMARK  170  A    between atoms: _464  and  _465
REMARK  171  A    between atoms: _470  and  _471
REMARK  172  A    between atoms: _473  and  _475
REMARK  173  A    between atoms: _475  and  _476
REMARK  174  A    between atoms: _475  and  _478
REMARK  175  A    between atoms: _478  and  _479
REMARK  176  A    between atoms: _484  and  _486
REMARK  177  A    between atoms: _486  and  _487
REMARK  178  A    between atoms: _486  and  _489
REMARK  179  A    between atoms: _489  and  _490
REMARK  180  A    between atoms: _492  and  _494
REMARK  181  A    between atoms: _494  and  _495
REMARK  182  A    between atoms: _494  and  _497
REMARK  183  A    between atoms: _497  and  _498
REMARK  184  A    between atoms: _501  and  _503
REMARK  185  A    between atoms: _503  and  _504
REMARK  186  A    between atoms: _503  and  _506
REMARK  187  A    between atoms: _506  and  _507
REMARK  188  A    between atoms: _510  and  _512
REMARK  189  A    between atoms: _512  and  _513
REMARK  190  A    between atoms: _512  and  _515
REMARK  191  A    between atoms: _515  and  _516
REMARK  192  A    between atoms: _519  and  _521
REMARK  193  A    between atoms: _521  and  _522
REMARK  194  A    between atoms: _521  and  _524
REMARK  195  A    between atoms: _524  and  _525
REMARK  196  A    between atoms: _528  and  _530
REMARK  197  A    between atoms: _530  and  _531
REMARK  198  A    between atoms: _530  and  _533
REMARK  199  A    between atoms: _533  and  _534
REMARK  200  A    between atoms: _534  and  _535
REMARK  201  A    between atoms: _535  and  _536
REMARK  202  A    between atoms: _545  and  _547
REMARK  203  A    between atoms: _547  and  _548
REMARK  204  A    between atoms: _547  and  _550
REMARK  205  A    between atoms: _550  and  _551
REMARK  206  A    between atoms: _557  and  _559
REMARK  207  A    between atoms: _559  and  _560
REMARK  208  A    between atoms: _559  and  _562
REMARK  209  A    between atoms: _562  and  _563
REMARK  210  A    between atoms: _563  and  _564
REMARK  211  A    between atoms: _564  and  _565
REMARK  212  A    between atoms: _574  and  _576
REMARK  213  A    between atoms: _576  and  _577
REMARK  214  A    between atoms: _576  and  _579
REMARK  215  A    between atoms: _579  and  _580
REMARK  216  A    between atoms: _582  and  _584
REMARK  217  A    between atoms: _584  and  _585
REMARK  218  A    between atoms: _584  and  _587
REMARK  219  A    between atoms: _587  and  _588
REMARK  220  A    between atoms: _591  and  _593
REMARK  221  A    between atoms: _593  and  _594
REMARK  222  A    between atoms: _593  and  _596
REMARK  223  A    between atoms: _596  and  _597
REMARK  224  A    between atoms: _601  and  _602
REMARK  225  A    between atoms: _607  and  _609
REMARK  226  A    between atoms: _609  and  _610
REMARK  227  A    between atoms: _609  and  _612
REMARK  228  A    between atoms: _612  and  _613
REMARK  229  A    between atoms: _618  and  _620
REMARK  230  A    between atoms: _620  and  _621
REMARK  231  A    between atoms: _620  and  _623
REMARK  232  A    between atoms: _623  and  _624
REMARK  233  A    between atoms: _627  and  _629
REMARK  234  A    between atoms: _629  and  _630
REMARK  235  A    between atoms: _629  and  _632
REMARK  236  A    between atoms: _632  and  _633
REMARK  237  A    between atoms: _639  and  _641
REMARK  238  A    between atoms: _641  and  _642
REMARK  239  A    between atoms: _641  and  _644
REMARK  240  A    between atoms: _644  and  _645
REMARK  241  A    between atoms: _650  and  _652
REMARK  242  A    between atoms: _652  and  _653
REMARK  243  A    between atoms: _652  and  _655
REMARK  244  A    between atoms: _655  and  _656
REMARK  245  A    between atoms: _658  and  _660
REMARK  246  A    between atoms: _660  and  _661
REMARK  247  A    between atoms: _664  and  _666
REMARK  248  A    between atoms: _666  and  _667
REMARK  249  A    between atoms: _666  and  _669
REMARK  250  A    between atoms: _669  and  _670
REMARK  251  A    between atoms: _675  and  _677
REMARK  252  A    between atoms: _677  and  _678
REMARK  253  A    between atoms: _677  and  _680
REMARK  254  A    between atoms: _680  and  _681
REMARK  255  A    between atoms: _684  and  _686
REMARK  256  A    between atoms: _686  and  _687
REMARK  257  A    between atoms: _686  and  _689
REMARK  258  A    between atoms: _689  and  _690
REMARK  259  A    between atoms: _690  and  _691
REMARK  260  A    between atoms: _693  and  _695
REMARK  261  A    between atoms: _695  and  _696
REMARK  262  A    between atoms: _695  and  _698
REMARK  263  A    between atoms: _698  and  _699
REMARK  264  A    between atoms: _704  and  _705
REMARK  265  A    between atoms: _708  and  _709
REMARK  266  A    between atoms: _714  and  _716
REMARK  267  A    between atoms: _716  and  _717
REMARK  268  A    between atoms: _716  and  _719
REMARK  269  A    between atoms: _719  and  _720
REMARK                            x       y       z     vdW  Elec       q    Type
REMARK                         _______ _______ _______ _____ _____    ______ ____
ROOT
ATOM      1  C   PRO A   8      37.350  38.574  27.809  0.00  0.00    +0.241 C 
ATOM      2  N   LEU A   9      38.626  38.385  28.139  0.00  0.00    -0.297 N 
ATOM      3  H   LEU A   9      38.955  38.664  29.085  0.00  0.00    +0.150 HD
ATOM      4  O   PRO A   8      36.886  38.260  26.707  0.00  0.00    -0.273 OA
ENDROOT
BRANCH   1  10
ATOM      5  C   TYR A   7      36.704  37.877  30.882  0.00  0.00    +0.244 C 
ATOM      6  N   PRO A   8      36.755  39.081  30.273  0.00  0.00    -0.272 N 
ATOM      7  CD  PRO A   8      37.024  40.382  30.910  0.00  0.00    +0.094 C 
ATOM      8  CG  PRO A   8      36.287  41.328  30.003  0.00  0.00    +0.024 C 
ATOM      9  CB  PRO A   8      36.563  40.787  28.661  0.00  0.00    +0.031 C 
ATOM     10  CA  PRO A   8      36.462  39.266  28.841  0.00  0.00    +0.152 C 
ATOM     11  O   TYR A   7      36.420  36.857  30.261  0.00  0.00    -0.273 OA
BRANCH   5  12
ATOM     12  CA  TYR A   7      37.011  37.797  32.395  0.00  0.00    +0.153 C 
BRANCH  12  14
ATOM     13  C   MET A   6      34.827  36.892  33.010  0.00  0.00    +0.241 C 
ATOM     14  N   TYR A   7      36.142  36.725  32.888  0.00  0.00    -0.297 N 
ATOM     15  H   TYR A   7      36.563  35.811  33.149  0.00  0.00    +0.150 HD
ATOM     16  O   MET A   6      34.271  37.960  32.756  0.00  0.00    -0.273 OA
BRANCH  13  17
ATOM     17  CA  MET A   6      34.005  35.684  33.472  0.00  0.00    +0.149 C 
BRANCH  17  19
ATOM     18  C   LEU A   5      35.410  33.700  33.579  0.00  0.00    +0.241 C 
ATOM     19  N   MET A   6      34.705  34.641  34.206  0.00  0.00    -0.297 N 
ATOM     20  H   MET A   6      34.654  34.630  35.245  0.00  0.00    +0.150 HD
ATOM     21  O   LEU A   5      35.570  33.680  32.360  0.00  0.00    -0.273 OA
BRANCH  18  22
ATOM     22  CA  LEU A   5      36.071  32.648  34.467  0.00  0.00    +0.149 C 
BRANCH  22  24
ATOM     23  C   ALA A   4      37.462  34.261  35.616  0.00  0.00    +0.241 C 
ATOM     24  N   LEU A   5      36.553  33.298  35.675  0.00  0.00    -0.297 N 
ATOM     25  H   LEU A   5      36.179  33.003  36.599  0.00  0.00    +0.150 HD
ATOM     26  O   ALA A   4      37.999  34.605  34.563  0.00  0.00    -0.273 OA
BRANCH  23  27
ATOM     27  CA  ALA A   4      37.851  34.906  36.940  0.00  0.00    +0.149 C 
ATOM     28  CB  ALA A   4      36.929  36.081  37.236  0.00  0.00    +0.031 C 
BRANCH  27  31
ATOM     29  C   GLU A   3      40.241  34.484  36.955  0.00  0.00    +0.241 C 
ATOM     30  O   GLU A   3      40.065  33.269  37.062  0.00  0.00    -0.273 OA
ATOM     31  N   ALA A   4      39.238  35.352  36.893  0.00  0.00    -0.297 N 
ATOM     32  H   ALA A   4      39.446  36.368  36.809  0.00  0.00    +0.150 HD
BRANCH  29  33
ATOM     33  CA  GLU A   3      41.653  35.059  36.893  0.00  0.00    +0.149 C 
BRANCH  33  35
ATOM     34  C   THR A   2      41.941  37.029  35.515  0.00  0.00    +0.243 C 
ATOM     35  N   GLU A   3      41.702  36.499  36.705  0.00  0.00    -0.297 N 
ATOM     36  H   GLU A   3      41.546  37.125  37.520  0.00  0.00    +0.150 HD
ATOM     37  O   THR A   2      42.135  36.349  34.507  0.00  0.00    -0.273 OA
BRANCH  34  38
ATOM     38  CA  THR A   2      41.975  38.549  35.440  0.00  0.00    +0.176 C 
BRANCH  38  40
ATOM     39  C   ASN A   1      39.998  39.027  36.788  0.00  0.00    +0.239 C 
ATOM     40  N   THR A   2      41.288  39.220  36.539  0.00  0.00    -0.295 N 
ATOM     41  H   THR A   2      41.826  39.870  37.147  0.00  0.00    +0.150 HD
ATOM     42  O   ASN A   1      39.306  38.221  36.162  0.00  0.00    -0.274 OA
BRANCH  39  43
ATOM     43  CA  ASN A   1      39.408  39.820  37.947  0.00  0.00    +0.154 C 
BRANCH  43  44
ATOM     44  N   ASN A   1      38.356  40.698  37.444  0.00  0.00    -0.238 NA
ATOM     45  H   ASN A   1      37.362  40.439  37.608  0.00  0.00    +0.142 HD
ENDBRANCH  43  44
BRANCH  43  46
ATOM     46  CB  ASN A   1      38.840  38.864  38.995  0.00  0.00    +0.111 C 
BRANCH  46  47
ATOM     47  CG  ASN A   1      39.914  38.060  39.697  0.00  0.00    +0.221 C 
ATOM     48  ND2 ASN A   1      39.559  37.479  40.828  0.00  0.00    -0.329 N 
ATOM     49 HD21 ASN A   1      40.247  36.904  41.355  0.00  0.00    +0.145 HD
ATOM     50 HD22 ASN A   1      38.592  37.596  41.192  0.00  0.00    +0.145 HD
ATOM     51  OD1 ASN A   1      41.046  37.951  39.226  0.00  0.00    -0.275 OA
ENDBRANCH  46  47
ENDBRANCH  43  46
ENDBRANCH  39  43
ENDBRANCH  38  40
BRANCH  38  52
ATOM     52  CB  THR A   2      43.440  39.000  35.341  0.00  0.00    +0.137 C 
ATOM     53  CG2 THR A   2      43.516  40.453  34.898  0.00  0.00    +0.034 C 
BRANCH  52  54
ATOM     54  OG1 THR A   2      44.066  38.853  36.620  0.00  0.00    -0.382 OA
ATOM     55  HG1 THR A   2      45.011  39.143  36.559  0.00  0.00    +0.210 HD
ENDBRANCH  52  54
ENDBRANCH  38  52
ENDBRANCH  34  38
ENDBRANCH  33  35
BRANCH  33  56
ATOM     56  CB  GLU A   3      42.428  34.681  38.146  0.00  0.00    +0.041 C 
BRANCH  56  57
ATOM     57  CG  GLU A   3      43.877  35.105  38.083  0.00  0.00    +0.116 C 
BRANCH  57  58
ATOM     58  CD  GLU A   3      44.686  34.543  39.217  0.00  0.00    +0.365 C 
ATOM     59  OE2 GLU A   3      44.878  35.264  40.216  0.00  0.00    -0.246 OA
ATOM     60  OE1 GLU A   3      45.119  33.378  39.107  0.00  0.00    -0.246 OA
ENDBRANCH  57  58
ENDBRANCH  56  57
ENDBRANCH  33  56
ENDBRANCH  29  33
ENDBRANCH  27  31
ENDBRANCH  23  27
ENDBRANCH  22  24
BRANCH  22  61
ATOM     61  CB  LEU A   5      35.045  31.563  34.810  0.00  0.00    +0.029 C 
BRANCH  61  62
ATOM     62  CG  LEU A   5      34.315  30.953  33.606  0.00  0.00    +0.002 C 
ATOM     63  CD2 LEU A   5      33.247  29.971  34.069  0.00  0.00    +0.000 C 
ATOM     64  CD1 LEU A   5      35.317  30.276  32.670  0.00  0.00    +0.000 C 
ENDBRANCH  61  62
ENDBRANCH  22  61
ENDBRANCH  18  22
ENDBRANCH  17  19
BRANCH  17  65
ATOM     65  CB  MET A   6      32.747  36.127  34.228  0.00  0.00    +0.041 C 
BRANCH  65  66
ATOM     66  CG  MET A   6      31.718  35.008  34.433  0.00  0.00    +0.060 C 
BRANCH  66  67
ATOM     67  SD  MET A   6      31.289  34.114  32.919  0.00  0.00    -0.139 S 
ATOM     68  CE  MET A   6      30.384  35.369  32.029  0.00  0.00    +0.069 C 
ENDBRANCH  66  67
ENDBRANCH  65  66
ENDBRANCH  17  65
ENDBRANCH  13  17
ENDBRANCH  12  14
BRANCH  12  69
ATOM     69  CB  TYR A   7      38.485  37.444  32.647  0.00  0.00    +0.055 C 
BRANCH  69  70
ATOM     70  CG  TYR A   7      39.438  38.579  32.353  0.00  0.00    -0.020 A 
ATOM     71  CD2 TYR A   7      39.390  39.762  33.093  0.00  0.00    -0.001 A 
ATOM     72  CE2 TYR A   7      40.225  40.831  32.798  0.00  0.00    +0.036 A 
ATOM     73  CZ  TYR A   7      41.126  40.723  31.755  0.00  0.00    +0.134 A 
ATOM     74  CE1 TYR A   7      41.199  39.556  31.007  0.00  0.00    +0.036 A 
ATOM     75  CD1 TYR A   7      40.357  38.491  31.310  0.00  0.00    -0.001 A 
BRANCH  73  76
ATOM     76  OH  TYR A   7      41.944  41.785  31.453  0.00  0.00    -0.506 OA
ATOM     77  HH  TYR A   7      41.762  42.529  32.080  0.00  0.00    +0.292 HD
ENDBRANCH  73  76
ENDBRANCH  69  70
ENDBRANCH  12  69
ENDBRANCH   5  12
ENDBRANCH   1  10
BRANCH   2  78
ATOM     78  CA  LEU A   9      39.570  37.794  27.198  0.00  0.00    +0.149 C 
BRANCH  78  79
ATOM     79  C   LEU A   9      39.937  36.351  27.511  0.00  0.00    +0.241 C 
ATOM     80  O   LEU A   9      40.258  36.013  28.649  0.00  0.00    -0.273 OA
ATOM     81  N   TYR A  10      39.917  35.516  26.478  0.00  0.00    -0.297 N 
ATOM     82  H   TYR A  10      39.647  35.882  25.543  0.00  0.00    +0.150 HD
BRANCH  81  83
ATOM     83  CA  TYR A  10      40.259  34.110  26.607  0.00  0.00    +0.153 C 
BRANCH  83  84
ATOM     84  C   TYR A  10      41.772  33.924  26.710  0.00  0.00    +0.241 C 
ATOM     85  N   HIS A  11      42.179  32.933  27.495  0.00  0.00    -0.297 N 
ATOM     86  H   HIS A  11      41.465  32.386  28.017  0.00  0.00    +0.150 HD
ATOM     87  O   TYR A  10      42.545  34.665  26.102  0.00  0.00    -0.273 OA
BRANCH  85  88
ATOM     88  CA  HIS A  11      43.583  32.580  27.655  0.00  0.00    +0.155 C 
BRANCH  88  89
ATOM     89  C   HIS A  11      43.595  31.097  28.002  0.00  0.00    +0.241 C 
ATOM     90  O   HIS A  11      42.702  30.622  28.705  0.00  0.00    -0.273 OA
ATOM     91  N   SER A  12      44.542  30.352  27.447  0.00  0.00    -0.295 N 
ATOM     92  H   SER A  12      45.231  30.790  26.803  0.00  0.00    +0.150 HD
BRANCH  91  93
ATOM     93  CA  SER A  12      44.625  28.924  27.733  0.00  0.00    +0.178 C 
BRANCH  93  94
ATOM     94  C   SER A  12      45.334  28.698  29.065  0.00  0.00    +0.243 C 
ATOM     95  N   LEU A  13      45.069  27.550  29.680  0.00  0.00    -0.297 N 
ATOM     96  H   LEU A  13      44.403  26.883  29.240  0.00  0.00    +0.150 HD
ATOM     97  O   SER A  12      46.062  29.571  29.549  0.00  0.00    -0.273 OA
BRANCH  95  98
ATOM     98  CA  LEU A  13      45.686  27.200  30.955  0.00  0.00    +0.149 C 
BRANCH  98  99
ATOM     99  C   LEU A  13      46.810  26.208  30.690  0.00  0.00    +0.241 C 
ATOM    100  N   THR A  14      47.796  26.168  31.580  0.00  0.00    -0.295 N 
ATOM    101  H   THR A  14      47.768  26.810  32.398  0.00  0.00    +0.150 HD
ATOM    102  O   LEU A  13      46.791  25.509  29.678  0.00  0.00    -0.273 OA
BRANCH 100 103
ATOM    103  CA  THR A  14      48.918  25.243  31.436  0.00  0.00    +0.176 C 
BRANCH 103 104
ATOM    104  C   THR A  14      48.470  23.830  31.807  0.00  0.00    +0.243 C 
ATOM    105  N   ASP A  15      47.544  23.753  32.759  0.00  0.00    -0.296 N 
ATOM    106  H   ASP A  15      47.191  24.636  33.180  0.00  0.00    +0.150 HD
ATOM    107  O   THR A  14      48.927  22.845  31.224  0.00  0.00    -0.273 OA
BRANCH 105 108
ATOM    108  CA  ASP A  15      47.001  22.489  33.239  0.00  0.00    +0.160 C 
BRANCH 108 109
ATOM    109  C   ASP A  15      45.514  22.699  33.521  0.00  0.00    +0.241 C 
ATOM    110  O   ASP A  15      45.146  23.511  34.370  0.00  0.00    -0.273 OA
ATOM    111  N   LEU A  16      44.663  21.983  32.793  0.00  0.00    -0.298 N 
ATOM    112  H   LEU A  16      45.037  21.317  32.087  0.00  0.00    +0.150 HD
BRANCH 111 113
ATOM    113  CA  LEU A  16      43.214  22.107  32.959  0.00  0.00    +0.137 C 
BRANCH 113 114
ATOM    114  C   LEU A  16      42.703  21.850  34.371  0.00  0.00    +0.227 C 
ATOM    115  O   LEU A  16      41.691  22.424  34.780  0.00  0.00    -0.286 OA
ENDBRANCH 113 114
BRANCH 113 116
ATOM    116  CB  LEU A  16      42.474  21.195  31.978  0.00  0.00    +0.028 C 
BRANCH 116 117
ATOM    117  CG  LEU A  16      42.397  21.660  30.525  0.00  0.00    +0.002 C 
ATOM    118  CD2 LEU A  16      41.621  22.967  30.427  0.00  0.00    +0.000 C 
ATOM    119  CD1 LEU A  16      41.727  20.583  29.692  0.00  0.00    +0.000 C 
ENDBRANCH 116 117
ENDBRANCH 113 116
ENDBRANCH 111 113
ENDBRANCH 108 109
BRANCH 108 120
ATOM    120  CB  ASP A  15      47.746  22.065  34.513  0.00  0.00    +0.143 C 
BRANCH 120 121
ATOM    121  CG  ASP A  15      47.260  20.737  35.083  0.00  0.00    +0.367 C 
ATOM    122  OD2 ASP A  15      47.489  20.509  36.292  0.00  0.00    -0.246 OA
ATOM    123  OD1 ASP A  15      46.668  19.919  34.342  0.00  0.00    -0.246 OA
ENDBRANCH 120 121
ENDBRANCH 108 120
ENDBRANCH 105 108
ENDBRANCH 103 104
BRANCH 103 124
ATOM    124  CB  THR A  14      50.112  25.656  32.334  0.00  0.00    +0.137 C 
ATOM    125  CG2 THR A  14      50.814  26.883  31.767  0.00  0.00    +0.034 C 
BRANCH 124 126
ATOM    126  OG1 THR A  14      49.647  25.949  33.658  0.00  0.00    -0.382 OA
ATOM    127  HG1 THR A  14      48.993  26.692  33.620  0.00  0.00    +0.210 HD
ENDBRANCH 124 126
ENDBRANCH 103 124
ENDBRANCH 100 103
ENDBRANCH  98  99
BRANCH  98 128
ATOM    128  CB  LEU A  13      44.659  26.566  31.897  0.00  0.00    +0.029 C 
BRANCH 128 129
ATOM    129  CG  LEU A  13      43.465  27.421  32.316  0.00  0.00    +0.002 C 
ATOM    130  CD2 LEU A  13      42.624  26.637  33.300  0.00  0.00    +0.000 C 
ATOM    131  CD1 LEU A  13      43.938  28.721  32.956  0.00  0.00    +0.000 C 
ENDBRANCH 128 129
ENDBRANCH  98 128
ENDBRANCH  95  98
ENDBRANCH  93  94
BRANCH  93 132
ATOM    132  CB  SER A  12      45.359  28.188  26.603  0.00  0.00    +0.166 C 
BRANCH 132 133
ATOM    133  OG  SER A  12      44.652  28.303  25.372  0.00  0.00    -0.380 OA
ATOM    134  H   SER A  12      43.749  27.909  25.473  0.00  0.00    +0.211 HD
ENDBRANCH 132 133
ENDBRANCH  93 132
ENDBRANCH  91  93
ENDBRANCH  88  89
BRANCH  88 135
ATOM    135  CB  HIS A  11      44.268  33.417  28.751  0.00  0.00    +0.076 C 
BRANCH 135 136
ATOM    136  CG  HIS A  11      43.852  33.074  30.152  0.00  0.00    +0.082 A 
ATOM    137  CD2 HIS A  11      44.325  32.152  31.025  0.00  0.00    +0.115 A 
ATOM    138  NE2 HIS A  11      43.620  32.299  32.194  0.00  0.00    -0.221 NA
ATOM    139  CE1 HIS A  11      42.742  33.276  32.047  0.00  0.00    +0.199 A 
ATOM    140  ND1 HIS A  11      42.862  33.758  30.823  0.00  0.00    -0.227 NA
ENDBRANCH 135 136
ENDBRANCH  88 135
ENDBRANCH  85  88
ENDBRANCH  83  84
BRANCH  83 141
ATOM    141  CB  TYR A  10      39.736  33.329  25.393  0.00  0.00    +0.055 C 
BRANCH 141 142
ATOM    142  CG  TYR A  10      40.200  31.886  25.345  0.00  0.00    -0.020 A 
ATOM    143  CD2 TYR A  10      39.553  30.904  26.094  0.00  0.00    -0.001 A 
ATOM    144  CE2 TYR A  10      40.001  29.580  26.089  0.00  0.00    +0.036 A 
ATOM    145  CZ  TYR A  10      41.107  29.229  25.326  0.00  0.00    +0.134 A 
ATOM    146  CE1 TYR A  10      41.768  30.188  24.568  0.00  0.00    +0.036 A 
ATOM    147  CD1 TYR A  10      41.310  31.510  24.580  0.00  0.00    -0.001 A 
BRANCH 145 148
ATOM    148  OH  TYR A  10      41.552  27.926  25.337  0.00  0.00    -0.506 OA
ATOM    149  HH  TYR A  10      42.481  27.899  25.677  0.00  0.00    +0.292 HD
ENDBRANCH 145 148
ENDBRANCH 141 142
ENDBRANCH  83 141
ENDBRANCH  81  83
ENDBRANCH  78  79
BRANCH  78 150
ATOM    150  CB  LEU A   9      40.848  38.638  27.134  0.00  0.00    +0.029 C 
BRANCH 150 151
ATOM    151  CG  LEU A   9      40.705  40.155  26.966  0.00  0.00    +0.002 C 
ATOM    152  CD2 LEU A   9      42.077  40.796  26.950  0.00  0.00    +0.000 C 
ATOM    153  CD1 LEU A   9      39.958  40.492  25.694  0.00  0.00    +0.000 C 
ENDBRANCH 150 151
ENDBRANCH  78 150
ENDBRANCH   2  78
TORSDOF 63
REMARK  Name = ../refined-set-2016/1hfs/1hfs_pocket.pdb
REMARK  269 active torsions:
REMARK  status: ('A' for Active; 'I' for Inactive)
REMARK    1  A    between atoms: _1  and  _3
REMARK    2  A    between atoms: _3  and  _4
REMARK    3  A    between atoms: _3  and  _6
REMARK    4  A    between atoms: _6  and  _7
REMARK    5  A    between atoms: _11  and  ZN_724
REMARK    6  A    between atoms: _12  and  _14
REMARK    7  A    between atoms: _14  and  _15
REMARK    8  A    between atoms: _14  and  _17
REMARK    9  A    between atoms: _17  and  _18
REMARK   10  A    between atoms: _18  and  _20
REMARK   11  A    between atoms: _20  and  ZN_724
REMARK   12  A    between atoms: _21  and  _23
REMARK   13  A    between atoms: _23  and  _24
REMARK   14  A    between atoms: _23  and  _26
REMARK   15  A    between atoms: _26  and  _27
REMARK   16  A    between atoms: _33  and  _35
REMARK   17  A    between atoms: _35  and  _36
REMARK   18  A    between atoms: _35  and  _38
REMARK   19  A    between atoms: _38  and  _39
REMARK   20  A    between atoms: _44  and  _45
REMARK   21  A    between atoms: _48  and  _49
REMARK   22  A    between atoms: _54  and  _56
REMARK   23  A    between atoms: _56  and  _57
REMARK   24  A    between atoms: _56  and  _59
REMARK   25  A    between atoms: _59  and  _60
REMARK   26  A    between atoms: _66  and  _68
REMARK   27  A    between atoms: _68  and  _69
REMARK   28  A    between atoms: _68  and  _71
REMARK   29  A    between atoms: _71  and  _72
REMARK   30  A    between atoms: _76  and  _77
REMARK   31  A    between atoms: _82  and  _84
REMARK   32  A    between atoms: _89  and  _92
REMARK   33  A    between atoms: _92  and  _93
REMARK   34  A    between atoms: _100  and  _103
REMARK   35  A    between atoms: _101  and  _106
REMARK   36  A    between atoms: _106  and  _108
REMARK   37  A    between atoms: _108  and  _109
REMARK   38  A    between atoms: _108  and  _111
REMARK   39  A    between atoms: _111  and  _112
REMARK   40  A    between atoms: _115  and  _117
REMARK   41  A    between atoms: _117  and  _118
REMARK   42  A    between atoms: _121  and  _123
REMARK   43  A    between atoms: _123  and  _124
REMARK   44  A    between atoms: _123  and  _126
REMARK   45  A    between atoms: _126  and  _127
REMARK   46  A    between atoms: _131  and  ZN_724
REMARK   47  A    between atoms: _132  and  _134
REMARK   48  A    between atoms: _134  and  _135
REMARK   49  A    between atoms: _138  and  _140
REMARK   50  A    between atoms: _140  and  _141
REMARK   51  A    between atoms: _140  and  _143
REMARK   52  A    between atoms: _143  and  _144
REMARK   53  A    between atoms: _149  and  _150
REMARK   54  A    between atoms: _152  and  _154
REMARK   55  A    between atoms: _154  and  _155
REMARK   56  A    between atoms: _158  and  _160
REMARK   57  A    between atoms: _160  and  _161
REMARK   58  A    between atoms: _160  and  _163
REMARK   59  A    between atoms: _163  and  _164
REMARK   60  A    between atoms: _167  and  _169
REMARK   61  A    between atoms: _169  and  _170
REMARK   62  A    between atoms: _172  and  _174
REMARK   63  A    between atoms: _174  and  _175
REMARK   64  A    between atoms: _174  and  _177
REMARK   65  A    between atoms: _177  and  _178
REMARK   66  A    between atoms: _181  and  _183
REMARK   67  A    between atoms: _183  and  _184
REMARK   68  A    between atoms: _183  and  _186
REMARK   69  A    between atoms: _186  and  _187
REMARK   70  A    between atoms: _188  and  ZN_724
REMARK   71  A    between atoms: _192  and  _194
REMARK   72  A    between atoms: _194  and  _195
REMARK   73  A    between atoms: _194  and  _197
REMARK   74  A    between atoms: _197  and  _198
REMARK   75  A    between atoms: _201  and  _203
REMARK   76  A    between atoms: _203  and  _204
REMARK   77  A    between atoms: _203  and  _206
REMARK   78  A    between atoms: _206  and  _207
REMARK   79  A    between atoms: _207  and  _208
REMARK   80  A    between atoms: _211  and  _213
REMARK   81  A    between atoms: _213  and  _214
REMARK   82  A    between atoms: _213  and  _216
REMARK   83  A    between atoms: _216  and  _217
REMARK   84  A    between atoms: _227  and  _229
REMARK   85  A    between atoms: _229  and  _230
REMARK   86  A    between atoms: _232  and  _234
REMARK   87  A    between atoms: _234  and  _235
REMARK   88  A    between atoms: _234  and  _237
REMARK   89  A    between atoms: _237  and  _238
REMARK   90  A    between atoms: _241  and  _243
REMARK   91  A    between atoms: _243  and  _244
REMARK   92  A    between atoms: _243  and  _246
REMARK   93  A    between atoms: _246  and  _247
REMARK   94  A    between atoms: _252  and  _254
REMARK   95  A    between atoms: _254  and  _255
REMARK   96  A    between atoms: _254  and  _257
REMARK   97  A    between atoms: _257  and  _258
REMARK   98  A    between atoms: _261  and  _263
REMARK   99  A    between atoms: _263  and  _264
REMARK  100  A    between atoms: _263  and  _266
REMARK  101  A    between atoms: _266  and  _267
REMARK  102  A    between atoms: _273  and  _275
REMARK  103  A    between atoms: _275  and  _276
REMARK  104  A    between atoms: _275  and  _278
REMARK  105  A    between atoms: _278  and  _279
REMARK  106  A    between atoms: _282  and  _284
REMARK  107  A    between atoms: _284  and  _285
REMARK  108  A    between atoms: _284  and  _287
REMARK  109  A    between atoms: _290  and  _292
REMARK  110  A    between atoms: _292  and  _293
REMARK  111  A    between atoms: _296  and  _298
REMARK  112  A    between atoms: _298  and  _299
REMARK  113  A    between atoms: _302  and  _304
REMARK  114  A    between atoms: _315  and  _318
REMARK  115  A    between atoms: _318  and  _319
REMARK  116  A    between atoms: _319  and  _320
REMARK  117  A    between atoms: _325  and  _328
REMARK  118  A    between atoms: _328  and  _329
REMARK  119  A    between atoms: _339  and  _340
REMARK  120  A    between atoms: _348  and  _350
REMARK  121  A    between atoms: _350  and  _351
REMARK  122  A    between atoms: _350  and  _353
REMARK  123  A    between atoms: _353  and  _354
REMARK  124  A    between atoms: _356  and  _358
REMARK  125  A    between atoms: _358  and  _359
REMARK  126  A    between atoms: _358  and  _361
REMARK  127  A    between atoms: _361  and  _362
REMARK  128  A    between atoms: _366  and  ZN_723
REMARK  129  A    between atoms: _367  and  _369
REMARK  130  A    between atoms: _369  and  _370
REMARK  131  A    between atoms: _369  and  _372
REMARK  132  A    between atoms: _372  and  _373
REMARK  133  A    between atoms: _375  and  _377
REMARK  134  A    between atoms: _377  and  _378
REMARK  135  A    between atoms: _377  and  _380
REMARK  136  A    between atoms: _380  and  _381
REMARK  137  A    between atoms: _386  and  _388
REMARK  138  A    between atoms: _388  and  _389
REMARK  139  A    between atoms: _388  and  _391
REMARK  140  A    between atoms: _391  and  _392
REMARK  141  A    between atoms: _395  and  _397
REMARK  142  A    between atoms: _397  and  _398
REMARK  143  A    between atoms: _397  and  _400
REMARK  144  A    between atoms: _400  and  _401
REMARK  145  A    between atoms: _401  and  _402
REMARK  146  A    between atoms: _405  and  _407
REMARK  147  A    between atoms: _407  and  _408
REMARK  148  A    between atoms: _411  and  _413
REMARK  149  A    between atoms: _413  and  _414
REMARK  150  A    between atoms: _413  and  _416
REMARK  151  A    between atoms: _416  and  _417
REMARK  152  A    between atoms: _420  and  _422
REMARK  153  A    between atoms: _422  and  _423
REMARK  154  A    between atoms: _422  and  _425
REMARK  155  A    between atoms: _425  and  _426
REMARK  156  A    between atoms: _426  and  _427
REMARK  157  A    between atoms: _429  and  _431
REMARK  158  A    between atoms: _431  and  _432
REMARK  159  A    between atoms: _431  and  _434
REMARK  160  A    between atoms: _434  and  _435
REMARK  161  A    between atoms: _440  and  _441
REMARK  162  A    between atoms: _444  and  _445
REMARK  163  A    between atoms: _450  and  _452
REMARK  164  A    between atoms: _452  and  _453
REMARK  165  A    between atoms: _452  and  _455
REMARK  166  A    between atoms: _455  and  _456
REMARK  167  A    between atoms: _459  and  _461
REMARK  168  A    between atoms: _461  and  _462
REMARK  169  A    between atoms: _461  and  _464
REMARK  170  A    between atoms: _464  and  _465
REMARK  171  A    between atoms: _470  and  _471
REMARK  172  A    between atoms: _473  and  _475
REMARK  173  A    between atoms: _475  and  _476
REMARK  174  A    between atoms: _475  and  _478
REMARK  175  A    between atoms: _478  and  _479
REMARK  176  A    between atoms: _484  and  _486
REMARK  177  A    between atoms: _486  and  _487
REMARK  178  A    between atoms: _486  and  _489
REMARK  179  A    between atoms: _489  and  _490
REMARK  180  A    between atoms: _492  and  _494
REMARK  181  A    between atoms: _494  and  _495
REMARK  182  A    between atoms: _494  and  _497
REMARK  183  A    between atoms: _497  and  _498
REMARK  184  A    between atoms: _501  and  _503
REMARK  185  A    between atoms: _503  and  _504
REMARK  186  A    between atoms: _503  and  _506
REMARK  187  A    between atoms: _506  and  _507
REMARK  188  A    between atoms: _510  and  _512
REMARK  189  A    between atoms: _512  and  _513
REMARK  190  A    between atoms: _512  and  _515
REMARK  191  A    between atoms: _515  and  _516
REMARK  192  A    between atoms: _519  and  _521
REMARK  193  A    between atoms: _521  and  _522
REMARK  194  A    between atoms: _521  and  _524
REMARK  195  A    between atoms: _524  and  _525
REMARK  196  A    between atoms: _528  and  _530
REMARK  197  A    between atoms: _530  and  _531
REMARK  198  A    between atoms: _530  and  _533
REMARK  199  A    between atoms: _533  and  _534
REMARK  200  A    between atoms: _534  and  _535
REMARK  201  A    between atoms: _535  and  _536
REMARK  202  A    between atoms: _545  and  _547
REMARK  203  A    between atoms: _547  and  _548
REMARK  204  A    between atoms: _547  and  _550
REMARK  205  A    between atoms: _550  and  _551
REMARK  206  A    between atoms: _557  and  _559
REMARK  207  A    between atoms: _559  and  _560
REMARK  208  A    between atoms: _559  and  _562
REMARK  209  A    between atoms: _562  and  _563
REMARK  210  A    between atoms: _563  and  _564
REMARK  211  A    between atoms: _564  and  _565
REMARK  212  A    between atoms: _574  and  _576
REMARK  213  A    between atoms: _576  and  _577
REMARK  214  A    between atoms: _576  and  _579
REMARK  215  A    between atoms: _579  and  _580
REMARK  216  A    between atoms: _582  and  _584
REMARK  217  A    between atoms: _584  and  _585
REMARK  218  A    between atoms: _584  and  _587
REMARK  219  A    between atoms: _587  and  _588
REMARK  220  A    between atoms: _591  and  _593
REMARK  221  A    between atoms: _593  and  _594
REMARK  222  A    between atoms: _593  and  _596
REMARK  223  A    between atoms: _596  and  _597
REMARK  224  A    between atoms: _601  and  _602
REMARK  225  A    between atoms: _607  and  _609
REMARK  226  A    between atoms: _609  and  _610
REMARK  227  A    between atoms: _609  and  _612
REMARK  228  A    between atoms: _612  and  _613
REMARK  229  A    between atoms: _618  and  _620
REMARK  230  A    between atoms: _620  and  _621
REMARK  231  A    between atoms: _620  and  _623
REMARK  232  A    between atoms: _623  and  _624
REMARK  233  A    between atoms: _627  and  _629
REMARK  234  A    between atoms: _629  and  _630
REMARK  235  A    between atoms: _629  and  _632
REMARK  236  A    between atoms: _632  and  _633
REMARK  237  A    between atoms: _639  and  _641
REMARK  238  A    between atoms: _641  and  _642
REMARK  239  A    between atoms: _641  and  _644
REMARK  240  A    between atoms: _644  and  _645
REMARK  241  A    between atoms: _650  and  _652
REMARK  242  A    between atoms: _652  and  _653
REMARK  243  A    between atoms: _652  and  _655
REMARK  244  A    between atoms: _655  and  _656
REMARK  245  A    between atoms: _658  and  _660
REMARK  246  A    between atoms: _660  and  _661
REMARK  247  A    between atoms: _664  and  _666
REMARK  248  A    between atoms: _666  and  _667
REMARK  249  A    between atoms: _666  and  _669
REMARK  250  A    between atoms: _669  and  _670
REMARK  251  A    between atoms: _675  and  _677
REMARK  252  A    between atoms: _677  and  _678
REMARK  253  A    between atoms: _677  and  _680
REMARK  254  A    between atoms: _680  and  _681
REMARK  255  A    between atoms: _684  and  _686
REMARK  256  A    between atoms: _686  and  _687
REMARK  257  A    between atoms: _686  and  _689
REMARK  258  A    between atoms: _689  and  _690
REMARK  259  A    between atoms: _690  and  _691
REMARK  260  A    between atoms: _693  and  _695
REMARK  261  A    between atoms: _695  and  _696
REMARK  262  A    between atoms: _695  and  _698
REMARK  263  A    between atoms: _698  and  _699
REMARK  264  A    between atoms: _704  and  _705
REMARK  265  A    between atoms: _708  and  _709
REMARK  266  A    between atoms: _714  and  _716
REMARK  267  A    between atoms: _716  and  _717
REMARK  268  A    between atoms: _716  and  _719
REMARK  269  A    between atoms: _719  and  _720
REMARK                            x       y       z     vdW  Elec       q    Type
REMARK                         _______ _______ _______ _____ _____    ______ ____
ROOT
ATOM      1  CA  PHE A   2      40.709  25.577  36.647  0.00  0.00    +0.153 C 
ENDROOT
BRANCH   1   4
ATOM      2  C   ARG A   1      42.902  25.107  37.569  0.00  0.00    +0.238 C 
ATOM      3  O   ARG A   1      42.944  26.209  38.113  0.00  0.00    -0.274 OA
ATOM      4  N   PHE A   2      41.873  24.719  36.820  0.00  0.00    -0.297 N 
ATOM      5  H   PHE A   2      41.900  23.791  36.352  0.00  0.00    +0.150 HD
BRANCH   2   6
ATOM      6  CA  ARG A   1      44.064  24.123  37.711  0.00  0.00    +0.145 C 
BRANCH   6   7
ATOM      7  N   ARG A   1      43.826  22.925  36.916  0.00  0.00    -0.238 NA
ATOM      8  H   ARG A   1      44.160  22.893  35.932  0.00  0.00    +0.142 HD
ENDBRANCH   6   7
BRANCH   6   9
ATOM      9  CB  ARG A   1      45.390  24.789  37.321  0.00  0.00    +0.030 C 
BRANCH   9  10
ATOM     10  CG  ARG A   1      46.629  24.012  37.771  0.00  0.00    +0.045 C 
BRANCH  10  11
ATOM     11  CD  ARG A   1      46.605  23.757  39.277  0.00  0.00    +0.174 C 
BRANCH  11  12
ATOM     12  NE  ARG A   1      47.791  23.048  39.755  0.00  0.00    -0.265 N 
ATOM     13  CZ  ARG A   1      48.014  22.738  41.030  0.00  0.00    +0.342 C 
ATOM     14  NH2 ARG A   1      47.130  23.068  41.965  0.00  0.00    -0.292 N 
ATOM     15 HH21 ARG A   1      47.309  22.823  42.960  0.00  0.00    +0.255 HD
ATOM     16 HH22 ARG A   1      46.259  23.571  41.702  0.00  0.00    +0.255 HD
ATOM     17  NH1 ARG A   1      49.121  22.092  41.376  0.00  0.00    -0.292 N 
ATOM     18 HH11 ARG A   1      49.292  21.851  42.373  0.00  0.00    +0.255 HD
ATOM     19 HH12 ARG A   1      49.817  21.827  40.650  0.00  0.00    +0.255 HD
ATOM     20  HE  ARG A   1      48.506  22.768  39.054  0.00  0.00    +0.259 HD
ENDBRANCH  11  12
ENDBRANCH  10  11
ENDBRANCH   9  10
ENDBRANCH   6   9
ENDBRANCH   2   6
ENDBRANCH   1   4
BRANCH   1  21
ATOM     21  C   PHE A   2      39.761  25.479  37.838  0.00  0.00    +0.241 C 
ATOM     22  O   PHE A   2      39.518  24.394  38.371  0.00  0.00    -0.273 OA
ATOM     23  N   ARG A   3      39.178  26.616  38.196  0.00  0.00    -0.298 N 
ATOM     24  H   ARG A   3      39.415  27.482  37.671  0.00  0.00    +0.150 HD
BRANCH  23  25
ATOM     25  CA  ARG A   3      38.223  26.705  39.289  0.00  0.00    +0.137 C 
BRANCH  25  26
ATOM     26  C   ARG A   3      37.556  28.069  39.169  0.00  0.00    +0.227 C 
ATOM     27  O   ARG A   3      38.159  29.013  38.649  0.00  0.00    -0.286 OA
ENDBRANCH  25  26
BRANCH  25  28
ATOM     28  CB  ARG A   3      38.934  26.613  40.645  0.00  0.00    +0.031 C 
BRANCH  28  29
ATOM     29  CG  ARG A   3      39.902  27.758  40.882  0.00  0.00    +0.045 C 
BRANCH  29  30
ATOM     30  CD  ARG A   3      40.138  28.035  42.351  0.00  0.00    +0.174 C 
BRANCH  30  31
ATOM     31  NE  ARG A   3      40.679  29.380  42.537  0.00  0.00    -0.265 N 
ATOM     32  CZ  ARG A   3      41.455  29.753  43.551  0.00  0.00    +0.342 C 
ATOM     33  NH2 ARG A   3      41.808  28.885  44.493  0.00  0.00    -0.292 N 
ATOM     34 HH21 ARG A   3      42.415  29.190  45.280  0.00  0.00    +0.255 HD
ATOM     35 HH22 ARG A   3      41.477  27.900  44.443  0.00  0.00    +0.255 HD
ATOM     36  NH1 ARG A   3      41.889  31.003  43.617  0.00  0.00    -0.292 N 
ATOM     37 HH11 ARG A   3      42.496  31.302  44.407  0.00  0.00    +0.255 HD
ATOM     38 HH12 ARG A   3      41.623  31.686  42.879  0.00  0.00    +0.255 HD
ATOM     39  HE  ARG A   3      40.440  30.098  41.824  0.00  0.00    +0.259 HD
ENDBRANCH  30  31
ENDBRANCH  29  30
ENDBRANCH  28  29
ENDBRANCH  25  28
ENDBRANCH  23  25
ENDBRANCH   1  21
BRANCH   1  40
ATOM     40  CB  PHE A   2      39.925  25.231  35.376  0.00  0.00    +0.055 C 
BRANCH  40  41
ATOM     41  CG  PHE A   2      38.578  25.910  35.303  0.00  0.00    -0.020 A 
ATOM     42  CD2 PHE A   2      37.419  25.235  35.685  0.00  0.00    -0.004 A 
ATOM     43  CE2 PHE A   2      36.180  25.878  35.691  0.00  0.00    -0.000 A 
ATOM     44  CZ  PHE A   2      36.091  27.210  35.308  0.00  0.00    -0.000 A 
ATOM     45  CE1 PHE A   2      37.240  27.896  34.919  0.00  0.00    -0.000 A 
ATOM     46  CD1 PHE A   2      38.475  27.244  34.917  0.00  0.00    -0.004 A 
ENDBRANCH  40  41
ENDBRANCH   1  40
TORSDOF 16
REMARK  Name = ../refined-set-2016/1hfs/1hfs_pocket.pdb
REMARK  269 active torsions:
REMARK  status: ('A' for Active; 'I' for Inactive)
REMARK    1  A    between atoms: _1  and  _3
REMARK    2  A    between atoms: _3  and  _4
REMARK    3  A    between atoms: _3  and  _6
REMARK    4  A    between atoms: _6  and  _7
REMARK    5  A    between atoms: _11  and  ZN_724
REMARK    6  A    between atoms: _12  and  _14
REMARK    7  A    between atoms: _14  and  _15
REMARK    8  A    between atoms: _14  and  _17
REMARK    9  A    between atoms: _17  and  _18
REMARK   10  A    between atoms: _18  and  _20
REMARK   11  A    between atoms: _20  and  ZN_724
REMARK   12  A    between atoms: _21  and  _23
REMARK   13  A    between atoms: _23  and  _24
REMARK   14  A    between atoms: _23  and  _26
REMARK   15  A    between atoms: _26  and  _27
REMARK   16  A    between atoms: _33  and  _35
REMARK   17  A    between atoms: _35  and  _36
REMARK   18  A    between atoms: _35  and  _38
REMARK   19  A    between atoms: _38  and  _39
REMARK   20  A    between atoms: _44  and  _45
REMARK   21  A    between atoms: _48  and  _49
REMARK   22  A    between atoms: _54  and  _56
REMARK   23  A    between atoms: _56  and  _57
REMARK   24  A    between atoms: _56  and  _59
REMARK   25  A    between atoms: _59  and  _60
REMARK   26  A    between atoms: _66  and  _68
REMARK   27  A    between atoms: _68  and  _69
REMARK   28  A    between atoms: _68  and  _71
REMARK   29  A    between atoms: _71  and  _72
REMARK   30  A    between atoms: _76  and  _77
REMARK   31  A    between atoms: _82  and  _84
REMARK   32  A    between atoms: _89  and  _92
REMARK   33  A    between atoms: _92  and  _93
REMARK   34  A    between atoms: _100  and  _103
REMARK   35  A    between atoms: _101  and  _106
REMARK   36  A    between atoms: _106  and  _108
REMARK   37  A    between atoms: _108  and  _109
REMARK   38  A    between atoms: _108  and  _111
REMARK   39  A    between atoms: _111  and  _112
REMARK   40  A    between atoms: _115  and  _117
REMARK   41  A    between atoms: _117  and  _118
REMARK   42  A    between atoms: _121  and  _123
REMARK   43  A    between atoms: _123  and  _124
REMARK   44  A    between atoms: _123  and  _126
REMARK   45  A    between atoms: _126  and  _127
REMARK   46  A    between atoms: _131  and  ZN_724
REMARK   47  A    between atoms: _132  and  _134
REMARK   48  A    between atoms: _134  and  _135
REMARK   49  A    between atoms: _138  and  _140
REMARK   50  A    between atoms: _140  and  _141
REMARK   51  A    between atoms: _140  and  _143
REMARK   52  A    between atoms: _143  and  _144
REMARK   53  A    between atoms: _149  and  _150
REMARK   54  A    between atoms: _152  and  _154
REMARK   55  A    between atoms: _154  and  _155
REMARK   56  A    between atoms: _158  and  _160
REMARK   57  A    between atoms: _160  and  _161
REMARK   58  A    between atoms: _160  and  _163
REMARK   59  A    between atoms: _163  and  _164
REMARK   60  A    between atoms: _167  and  _169
REMARK   61  A    between atoms: _169  and  _170
REMARK   62  A    between atoms: _172  and  _174
REMARK   63  A    between atoms: _174  and  _175
REMARK   64  A    between atoms: _174  and  _177
REMARK   65  A    between atoms: _177  and  _178
REMARK   66  A    between atoms: _181  and  _183
REMARK   67  A    between atoms: _183  and  _184
REMARK   68  A    between atoms: _183  and  _186
REMARK   69  A    between atoms: _186  and  _187
REMARK   70  A    between atoms: _188  and  ZN_724
REMARK   71  A    between atoms: _192  and  _194
REMARK   72  A    between atoms: _194  and  _195
REMARK   73  A    between atoms: _194  and  _197
REMARK   74  A    between atoms: _197  and  _198
REMARK   75  A    between atoms: _201  and  _203
REMARK   76  A    between atoms: _203  and  _204
REMARK   77  A    between atoms: _203  and  _206
REMARK   78  A    between atoms: _206  and  _207
REMARK   79  A    between atoms: _207  and  _208
REMARK   80  A    between atoms: _211  and  _213
REMARK   81  A    between atoms: _213  and  _214
REMARK   82  A    between atoms: _213  and  _216
REMARK   83  A    between atoms: _216  and  _217
REMARK   84  A    between atoms: _227  and  _229
REMARK   85  A    between atoms: _229  and  _230
REMARK   86  A    between atoms: _232  and  _234
REMARK   87  A    between atoms: _234  and  _235
REMARK   88  A    between atoms: _234  and  _237
REMARK   89  A    between atoms: _237  and  _238
REMARK   90  A    between atoms: _241  and  _243
REMARK   91  A    between atoms: _243  and  _244
REMARK   92  A    between atoms: _243  and  _246
REMARK   93  A    between atoms: _246  and  _247
REMARK   94  A    between atoms: _252  and  _254
REMARK   95  A    between atoms: _254  and  _255
REMARK   96  A    between atoms: _254  and  _257
REMARK   97  A    between atoms: _257  and  _258
REMARK   98  A    between atoms: _261  and  _263
REMARK   99  A    between atoms: _263  and  _264
REMARK  100  A    between atoms: _263  and  _266
REMARK  101  A    between atoms: _266  and  _267
REMARK  102  A    between atoms: _273  and  _275
REMARK  103  A    between atoms: _275  and  _276
REMARK  104  A    between atoms: _275  and  _278
REMARK  105  A    between atoms: _278  and  _279
REMARK  106  A    between atoms: _282  and  _284
REMARK  107  A    between atoms: _284  and  _285
REMARK  108  A    between atoms: _284  and  _287
REMARK  109  A    between atoms: _290  and  _292
REMARK  110  A    between atoms: _292  and  _293
REMARK  111  A    between atoms: _296  and  _298
REMARK  112  A    between atoms: _298  and  _299
REMARK  113  A    between atoms: _302  and  _304
REMARK  114  A    between atoms: _315  and  _318
REMARK  115  A    between atoms: _318  and  _319
REMARK  116  A    between atoms: _319  and  _320
REMARK  117  A    between atoms: _325  and  _328
REMARK  118  A    between atoms: _328  and  _329
REMARK  119  A    between atoms: _339  and  _340
REMARK  120  A    between atoms: _348  and  _350
REMARK  121  A    between atoms: _350  and  _351
REMARK  122  A    between atoms: _350  and  _353
REMARK  123  A    between atoms: _353  and  _354
REMARK  124  A    between atoms: _356  and  _358
REMARK  125  A    between atoms: _358  and  _359
REMARK  126  A    between atoms: _358  and  _361
REMARK  127  A    between atoms: _361  and  _362
REMARK  128  A    between atoms: _366  and  ZN_723
REMARK  129  A    between atoms: _367  and  _369
REMARK  130  A    between atoms: _369  and  _370
REMARK  131  A    between atoms: _369  and  _372
REMARK  132  A    between atoms: _372  and  _373
REMARK  133  A    between atoms: _375  and  _377
REMARK  134  A    between atoms: _377  and  _378
REMARK  135  A    between atoms: _377  and  _380
REMARK  136  A    between atoms: _380  and  _381
REMARK  137  A    between atoms: _386  and  _388
REMARK  138  A    between atoms: _388  and  _389
REMARK  139  A    between atoms: _388  and  _391
REMARK  140  A    between atoms: _391  and  _392
REMARK  141  A    between atoms: _395  and  _397
REMARK  142  A    between atoms: _397  and  _398
REMARK  143  A    between atoms: _397  and  _400
REMARK  144  A    between atoms: _400  and  _401
REMARK  145  A    between atoms: _401  and  _402
REMARK  146  A    between atoms: _405  and  _407
REMARK  147  A    between atoms: _407  and  _408
REMARK  148  A    between atoms: _411  and  _413
REMARK  149  A    between atoms: _413  and  _414
REMARK  150  A    between atoms: _413  and  _416
REMARK  151  A    between atoms: _416  and  _417
REMARK  152  A    between atoms: _420  and  _422
REMARK  153  A    between atoms: _422  and  _423
REMARK  154  A    between atoms: _422  and  _425
REMARK  155  A    between atoms: _425  and  _426
REMARK  156  A    between atoms: _426  and  _427
REMARK  157  A    between atoms: _429  and  _431
REMARK  158  A    between atoms: _431  and  _432
REMARK  159  A    between atoms: _431  and  _434
REMARK  160  A    between atoms: _434  and  _435
REMARK  161  A    between atoms: _440  and  _441
REMARK  162  A    between atoms: _444  and  _445
REMARK  163  A    between atoms: _450  and  _452
REMARK  164  A    between atoms: _452  and  _453
REMARK  165  A    between atoms: _452  and  _455
REMARK  166  A    between atoms: _455  and  _456
REMARK  167  A    between atoms: _459  and  _461
REMARK  168  A    between atoms: _461  and  _462
REMARK  169  A    between atoms: _461  and  _464
REMARK  170  A    between atoms: _464  and  _465
REMARK  171  A    between atoms: _470  and  _471
REMARK  172  A    between atoms: _473  and  _475
REMARK  173  A    between atoms: _475  and  _476
REMARK  174  A    between atoms: _475  and  _478
REMARK  175  A    between atoms: _478  and  _479
REMARK  176  A    between atoms: _484  and  _486
REMARK  177  A    between atoms: _486  and  _487
REMARK  178  A    between atoms: _486  and  _489
REMARK  179  A    between atoms: _489  and  _490
REMARK  180  A    between atoms: _492  and  _494
REMARK  181  A    between atoms: _494  and  _495
REMARK  182  A    between atoms: _494  and  _497
REMARK  183  A    between atoms: _497  and  _498
REMARK  184  A    between atoms: _501  and  _503
REMARK  185  A    between atoms: _503  and  _504
REMARK  186  A    between atoms: _503  and  _506
REMARK  187  A    between atoms: _506  and  _507
REMARK  188  A    between atoms: _510  and  _512
REMARK  189  A    between atoms: _512  and  _513
REMARK  190  A    between atoms: _512  and  _515
REMARK  191  A    between atoms: _515  and  _516
REMARK  192  A    between atoms: _519  and  _521
REMARK  193  A    between atoms: _521  and  _522
REMARK  194  A    between atoms: _521  and  _524
REMARK  195  A    between atoms: _524  and  _525
REMARK  196  A    between atoms: _528  and  _530
REMARK  197  A    between atoms: _530  and  _531
REMARK  198  A    between atoms: _530  and  _533
REMARK  199  A    between atoms: _533  and  _534
REMARK  200  A    between atoms: _534  and  _535
REMARK  201  A    between atoms: _535  and  _536
REMARK  202  A    between atoms: _545  and  _547
REMARK  203  A    between atoms: _547  and  _548
REMARK  204  A    between atoms: _547  and  _550
REMARK  205  A    between atoms: _550  and  _551
REMARK  206  A    between atoms: _557  and  _559
REMARK  207  A    between atoms: _559  and  _560
REMARK  208  A    between atoms: _559  and  _562
REMARK  209  A    between atoms: _562  and  _563
REMARK  210  A    between atoms: _563  and  _564
REMARK  211  A    between atoms: _564  and  _565
REMARK  212  A    between atoms: _574  and  _576
REMARK  213  A    between atoms: _576  and  _577
REMARK  214  A    between atoms: _576  and  _579
REMARK  215  A    between atoms: _579  and  _580
REMARK  216  A    between atoms: _582  and  _584
REMARK  217  A    between atoms: _584  and  _585
REMARK  218  A    between atoms: _584  and  _587
REMARK  219  A    between atoms: _587  and  _588
REMARK  220  A    between atoms: _591  and  _593
REMARK  221  A    between atoms: _593  and  _594
REMARK  222  A    between atoms: _593  and  _596
REMARK  223  A    between atoms: _596  and  _597
REMARK  224  A    between atoms: _601  and  _602
REMARK  225  A    between atoms: _607  and  _609
REMARK  226  A    between atoms: _609  and  _610
REMARK  227  A    between atoms: _609  and  _612
REMARK  228  A    between atoms: _612  and  _613
REMARK  229  A    between atoms: _618  and  _620
REMARK  230  A    between atoms: _620  and  _621
REMARK  231  A    between atoms: _620  and  _623
REMARK  232  A    between atoms: _623  and  _624
REMARK  233  A    between atoms: _627  and  _629
REMARK  234  A    between atoms: _629  and  _630
REMARK  235  A    between atoms: _629  and  _632
REMARK  236  A    between atoms: _632  and  _633
REMARK  237  A    between atoms: _639  and  _641
REMARK  238  A    between atoms: _641  and  _642
REMARK  239  A    between atoms: _641  and  _644
REMARK  240  A    between atoms: _644  and  _645
REMARK  241  A    between atoms: _650  and  _652
REMARK  242  A    between atoms: _652  and  _653
REMARK  243  A    between atoms: _652  and  _655
REMARK  244  A    between atoms: _655  and  _656
REMARK  245  A    between atoms: _658  and  _660
REMARK  246  A    between atoms: _660  and  _661
REMARK  247  A    between atoms: _664  and  _666
REMARK  248  A    between atoms: _666  and  _667
REMARK  249  A    between atoms: _666  and  _669
REMARK  250  A    between atoms: _669  and  _670
REMARK  251  A    between atoms: _675  and  _677
REMARK  252  A    between atoms: _677  and  _678
REMARK  253  A    between atoms: _677  and  _680
REMARK  254  A    between atoms: _680  and  _681
REMARK  255  A    between atoms: _684  and  _686
REMARK  256  A    between atoms: _686  and  _687
REMARK  257  A    between atoms: _686  and  _689
REMARK  258  A    between atoms: _689  and  _690
REMARK  259  A    between atoms: _690  and  _691
REMARK  260  A    between atoms: _693  and  _695
REMARK  261  A    between atoms: _695  and  _696
REMARK  262  A    between atoms: _695  and  _698
REMARK  263  A    between atoms: _698  and  _699
REMARK  264  A    between atoms: _704  and  _705
REMARK  265  A    between atoms: _708  and  _709
REMARK  266  A    between atoms: _714  and  _716
REMARK  267  A    between atoms: _716  and  _717
REMARK  268  A    between atoms: _716  and  _719
REMARK  269  A    between atoms: _719  and  _720
REMARK                            x       y       z     vdW  Elec       q    Type
REMARK                         _______ _______ _______ _____ _____    ______ ____
ROOT
ATOM      1  CA  SER A   1      36.924  32.519  41.296  0.00  0.00    +0.163 C 
ENDROOT
BRANCH   1   2
ATOM      2  N   SER A   1      36.378  31.592  40.325  0.00  0.00    -0.237 NA
ATOM      3  H   SER A   1      36.110  31.932  39.379  0.00  0.00    +0.142 HD
ENDBRANCH   1   2
BRANCH   1   4
ATOM      4  C   SER A   1      35.762  32.888  42.210  0.00  0.00    +0.227 C 
ATOM      5  O   SER A   1      34.599  32.618  41.888  0.00  0.00    -0.287 OA
ENDBRANCH   1   4
BRANCH   1   6
ATOM      6  CB  SER A   1      37.463  33.763  40.593  0.00  0.00    +0.162 C 
BRANCH   6   7
ATOM      7  OG  SER A   1      36.417  34.519  40.011  0.00  0.00    -0.380 OA
ATOM      8  H   SER A   1      35.940  33.962  39.346  0.00  0.00    +0.211 HD
ENDBRANCH   6   7
ENDBRANCH   1   6
TORSDOF 4
REMARK  Name = ../refined-set-2016/1hfs/1hfs_pocket.pdb
REMARK  269 active torsions:
REMARK  status: ('A' for Active; 'I' for Inactive)
REMARK    1  A    between atoms: _1  and  _3
REMARK    2  A    between atoms: _3  and  _4
REMARK    3  A    between atoms: _3  and  _6
REMARK    4  A    between atoms: _6  and  _7
REMARK    5  A    between atoms: _11  and  ZN_724
REMARK    6  A    between atoms: _12  and  _14
REMARK    7  A    between atoms: _14  and  _15
REMARK    8  A    between atoms: _14  and  _17
REMARK    9  A    between atoms: _17  and  _18
REMARK   10  A    between atoms: _18  and  _20
REMARK   11  A    between atoms: _20  and  ZN_724
REMARK   12  A    between atoms: _21  and  _23
REMARK   13  A    between atoms: _23  and  _24
REMARK   14  A    between atoms: _23  and  _26
REMARK   15  A    between atoms: _26  and  _27
REMARK   16  A    between atoms: _33  and  _35
REMARK   17  A    between atoms: _35  and  _36
REMARK   18  A    between atoms: _35  and  _38
REMARK   19  A    between atoms: _38  and  _39
REMARK   20  A    between atoms: _44  and  _45
REMARK   21  A    between atoms: _48  and  _49
REMARK   22  A    between atoms: _54  and  _56
REMARK   23  A    between atoms: _56  and  _57
REMARK   24  A    between atoms: _56  and  _59
REMARK   25  A    between atoms: _59  and  _60
REMARK   26  A    between atoms: _66  and  _68
REMARK   27  A    between atoms: _68  and  _69
REMARK   28  A    between atoms: _68  and  _71
REMARK   29  A    between atoms: _71  and  _72
REMARK   30  A    between atoms: _76  and  _77
REMARK   31  A    between atoms: _82  and  _84
REMARK   32  A    between atoms: _89  and  _92
REMARK   33  A    between atoms: _92  and  _93
REMARK   34  A    between atoms: _100  and  _103
REMARK   35  A    between atoms: _101  and  _106
REMARK   36  A    between atoms: _106  and  _108
REMARK   37  A    between atoms: _108  and  _109
REMARK   38  A    between atoms: _108  and  _111
REMARK   39  A    between atoms: _111  and  _112
REMARK   40  A    between atoms: _115  and  _117
REMARK   41  A    between atoms: _117  and  _118
REMARK   42  A    between atoms: _121  and  _123
REMARK   43  A    between atoms: _123  and  _124
REMARK   44  A    between atoms: _123  and  _126
REMARK   45  A    between atoms: _126  and  _127
REMARK   46  A    between atoms: _131  and  ZN_724
REMARK   47  A    between atoms: _132  and  _134
REMARK   48  A    between atoms: _134  and  _135
REMARK   49  A    between atoms: _138  and  _140
REMARK   50  A    between atoms: _140  and  _141
REMARK   51  A    between atoms: _140  and  _143
REMARK   52  A    between atoms: _143  and  _144
REMARK   53  A    between atoms: _149  and  _150
REMARK   54  A    between atoms: _152  and  _154
REMARK   55  A    between atoms: _154  and  _155
REMARK   56  A    between atoms: _158  and  _160
REMARK   57  A    between atoms: _160  and  _161
REMARK   58  A    between atoms: _160  and  _163
REMARK   59  A    between atoms: _163  and  _164
REMARK   60  A    between atoms: _167  and  _169
REMARK   61  A    between atoms: _169  and  _170
REMARK   62  A    between atoms: _172  and  _174
REMARK   63  A    between atoms: _174  and  _175
REMARK   64  A    between atoms: _174  and  _177
REMARK   65  A    between atoms: _177  and  _178
REMARK   66  A    between atoms: _181  and  _183
REMARK   67  A    between atoms: _183  and  _184
REMARK   68  A    between atoms: _183  and  _186
REMARK   69  A    between atoms: _186  and  _187
REMARK   70  A    between atoms: _188  and  ZN_724
REMARK   71  A    between atoms: _192  and  _194
REMARK   72  A    between atoms: _194  and  _195
REMARK   73  A    between atoms: _194  and  _197
REMARK   74  A    between atoms: _197  and  _198
REMARK   75  A    between atoms: _201  and  _203
REMARK   76  A    between atoms: _203  and  _204
REMARK   77  A    between atoms: _203  and  _206
REMARK   78  A    between atoms: _206  and  _207
REMARK   79  A    between atoms: _207  and  _208
REMARK   80  A    between atoms: _211  and  _213
REMARK   81  A    between atoms: _213  and  _214
REMARK   82  A    between atoms: _213  and  _216
REMARK   83  A    between atoms: _216  and  _217
REMARK   84  A    between atoms: _227  and  _229
REMARK   85  A    between atoms: _229  and  _230
REMARK   86  A    between atoms: _232  and  _234
REMARK   87  A    between atoms: _234  and  _235
REMARK   88  A    between atoms: _234  and  _237
REMARK   89  A    between atoms: _237  and  _238
REMARK   90  A    between atoms: _241  and  _243
REMARK   91  A    between atoms: _243  and  _244
REMARK   92  A    between atoms: _243  and  _246
REMARK   93  A    between atoms: _246  and  _247
REMARK   94  A    between atoms: _252  and  _254
REMARK   95  A    between atoms: _254  and  _255
REMARK   96  A    between atoms: _254  and  _257
REMARK   97  A    between atoms: _257  and  _258
REMARK   98  A    between atoms: _261  and  _263
REMARK   99  A    between atoms: _263  and  _264
REMARK  100  A    between atoms: _263  and  _266
REMARK  101  A    between atoms: _266  and  _267
REMARK  102  A    between atoms: _273  and  _275
REMARK  103  A    between atoms: _275  and  _276
REMARK  104  A    between atoms: _275  and  _278
REMARK  105  A    between atoms: _278  and  _279
REMARK  106  A    between atoms: _282  and  _284
REMARK  107  A    between atoms: _284  and  _285
REMARK  108  A    between atoms: _284  and  _287
REMARK  109  A    between atoms: _290  and  _292
REMARK  110  A    between atoms: _292  and  _293
REMARK  111  A    between atoms: _296  and  _298
REMARK  112  A    between atoms: _298  and  _299
REMARK  113  A    between atoms: _302  and  _304
REMARK  114  A    between atoms: _315  and  _318
REMARK  115  A    between atoms: _318  and  _319
REMARK  116  A    between atoms: _319  and  _320
REMARK  117  A    between atoms: _325  and  _328
REMARK  118  A    between atoms: _328  and  _329
REMARK  119  A    between atoms: _339  and  _340
REMARK  120  A    between atoms: _348  and  _350
REMARK  121  A    between atoms: _350  and  _351
REMARK  122  A    between atoms: _350  and  _353
REMARK  123  A    between atoms: _353  and  _354
REMARK  124  A    between atoms: _356  and  _358
REMARK  125  A    between atoms: _358  and  _359
REMARK  126  A    between atoms: _358  and  _361
REMARK  127  A    between atoms: _361  and  _362
REMARK  128  A    between atoms: _366  and  ZN_723
REMARK  129  A    between atoms: _367  and  _369
REMARK  130  A    between atoms: _369  and  _370
REMARK  131  A    between atoms: _369  and  _372
REMARK  132  A    between atoms: _372  and  _373
REMARK  133  A    between atoms: _375  and  _377
REMARK  134  A    between atoms: _377  and  _378
REMARK  135  A    between atoms: _377  and  _380
REMARK  136  A    between atoms: _380  and  _381
REMARK  137  A    between atoms: _386  and  _388
REMARK  138  A    between atoms: _388  and  _389
REMARK  139  A    between atoms: _388  and  _391
REMARK  140  A    between atoms: _391  and  _392
REMARK  141  A    between atoms: _395  and  _397
REMARK  142  A    between atoms: _397  and  _398
REMARK  143  A    between atoms: _397  and  _400
REMARK  144  A    between atoms: _400  and  _401
REMARK  145  A    between atoms: _401  and  _402
REMARK  146  A    between atoms: _405  and  _407
REMARK  147  A    between atoms: _407  and  _408
REMARK  148  A    between atoms: _411  and  _413
REMARK  149  A    between atoms: _413  and  _414
REMARK  150  A    between atoms: _413  and  _416
REMARK  151  A    between atoms: _416  and  _417
REMARK  152  A    between atoms: _420  and  _422
REMARK  153  A    between atoms: _422  and  _423
REMARK  154  A    between atoms: _422  and  _425
REMARK  155  A    between atoms: _425  and  _426
REMARK  156  A    between atoms: _426  and  _427
REMARK  157  A    between atoms: _429  and  _431
REMARK  158  A    between atoms: _431  and  _432
REMARK  159  A    between atoms: _431  and  _434
REMARK  160  A    between atoms: _434  and  _435
REMARK  161  A    between atoms: _440  and  _441
REMARK  162  A    between atoms: _444  and  _445
REMARK  163  A    between atoms: _450  and  _452
REMARK  164  A    between atoms: _452  and  _453
REMARK  165  A    between atoms: _452  and  _455
REMARK  166  A    between atoms: _455  and  _456
REMARK  167  A    between atoms: _459  and  _461
REMARK  168  A    between atoms: _461  and  _462
REMARK  169  A    between atoms: _461  and  _464
REMARK  170  A    between atoms: _464  and  _465
REMARK  171  A    between atoms: _470  and  _471
REMARK  172  A    between atoms: _473  and  _475
REMARK  173  A    between atoms: _475  and  _476
REMARK  174  A    between atoms: _475  and  _478
REMARK  175  A    between atoms: _478  and  _479
REMARK  176  A    between atoms: _484  and  _486
REMARK  177  A    between atoms: _486  and  _487
REMARK  178  A    between atoms: _486  and  _489
REMARK  179  A    between atoms: _489  and  _490
REMARK  180  A    between atoms: _492  and  _494
REMARK  181  A    between atoms: _494  and  _495
REMARK  182  A    between atoms: _494  and  _497
REMARK  183  A    between atoms: _497  and  _498
REMARK  184  A    between atoms: _501  and  _503
REMARK  185  A    between atoms: _503  and  _504
REMARK  186  A    between atoms: _503  and  _506
REMARK  187  A    between atoms: _506  and  _507
REMARK  188  A    between atoms: _510  and  _512
REMARK  189  A    between atoms: _512  and  _513
REMARK  190  A    between atoms: _512  and  _515
REMARK  191  A    between atoms: _515  and  _516
REMARK  192  A    between atoms: _519  and  _521
REMARK  193  A    between atoms: _521  and  _522
REMARK  194  A    between atoms: _521  and  _524
REMARK  195  A    between atoms: _524  and  _525
REMARK  196  A    between atoms: _528  and  _530
REMARK  197  A    between atoms: _530  and  _531
REMARK  198  A    between atoms: _530  and  _533
REMARK  199  A    between atoms: _533  and  _534
REMARK  200  A    between atoms: _534  and  _535
REMARK  201  A    between atoms: _535  and  _536
REMARK  202  A    between atoms: _545  and  _547
REMARK  203  A    between atoms: _547  and  _548
REMARK  204  A    between atoms: _547  and  _550
REMARK  205  A    between atoms: _550  and  _551
REMARK  206  A    between atoms: _557  and  _559
REMARK  207  A    between atoms: _559  and  _560
REMARK  208  A    between atoms: _559  and  _562
REMARK  209  A    between atoms: _562  and  _563
REMARK  210  A    between atoms: _563  and  _564
REMARK  211  A    between atoms: _564  and  _565
REMARK  212  A    between atoms: _574  and  _576
REMARK  213  A    between atoms: _576  and  _577
REMARK  214  A    between atoms: _576  and  _579
REMARK  215  A    between atoms: _579  and  _580
REMARK  216  A    between atoms: _582  and  _584
REMARK  217  A    between atoms: _584  and  _585
REMARK  218  A    between atoms: _584  and  _587
REMARK  219  A    between atoms: _587  and  _588
REMARK  220  A    between atoms: _591  and  _593
REMARK  221  A    between atoms: _593  and  _594
REMARK  222  A    between atoms: _593  and  _596
REMARK  223  A    between atoms: _596  and  _597
REMARK  224  A    between atoms: _601  and  _602
REMARK  225  A    between atoms: _607  and  _609
REMARK  226  A    between atoms: _609  and  _610
REMARK  227  A    between atoms: _609  and  _612
REMARK  228  A    between atoms: _612  and  _613
REMARK  229  A    between atoms: _618  and  _620
REMARK  230  A    between atoms: _620  and  _621
REMARK  231  A    between atoms: _620  and  _623
REMARK  232  A    between atoms: _623  and  _624
REMARK  233  A    between atoms: _627  and  _629
REMARK  234  A    between atoms: _629  and  _630
REMARK  235  A    between atoms: _629  and  _632
REMARK  236  A    between atoms: _632  and  _633
REMARK  237  A    between atoms: _639  and  _641
REMARK  238  A    between atoms: _641  and  _642
REMARK  239  A    between atoms: _641  and  _644
REMARK  240  A    between atoms: _644  and  _645
REMARK  241  A    between atoms: _650  and  _652
REMARK  242  A    between atoms: _652  and  _653
REMARK  243  A    between atoms: _652  and  _655
REMARK  244  A    between atoms: _655  and  _656
REMARK  245  A    between atoms: _658  and  _660
REMARK  246  A    between atoms: _660  and  _661
REMARK  247  A    between atoms: _664  and  _666
REMARK  248  A    between atoms: _666  and  _667
REMARK  249  A    between atoms: _666  and  _669
REMARK  250  A    between atoms: _669  and  _670
REMARK  251  A    between atoms: _675  and  _677
REMARK  252  A    between atoms: _677  and  _678
REMARK  253  A    between atoms: _677  and  _680
REMARK  254  A    between atoms: _680  and  _681
REMARK  255  A    between atoms: _684  and  _686
REMARK  256  A    between atoms: _686  and  _687
REMARK  257  A    between atoms: _686  and  _689
REMARK  258  A    between atoms: _689  and  _690
REMARK  259  A    between atoms: _690  and  _691
REMARK  260  A    between atoms: _693  and  _695
REMARK  261  A    between atoms: _695  and  _696
REMARK  262  A    between atoms: _695  and  _698
REMARK  263  A    between atoms: _698  and  _699
REMARK  264  A    between atoms: _704  and  _705
REMARK  265  A    between atoms: _708  and  _709
REMARK  266  A    between atoms: _714  and  _716
REMARK  267  A    between atoms: _716  and  _717
REMARK  268  A    between atoms: _716  and  _719
REMARK  269  A    between atoms: _719  and  _720
REMARK                            x       y       z     vdW  Elec       q    Type
REMARK                         _______ _______ _______ _____ _____    ______ ____
ROOT
ATOM      1  CA  ASP A   1      32.196  34.148  39.631  0.00  0.00    +0.144 C 
ENDROOT
BRANCH   1   2
ATOM      2  N   ASP A   1      33.136  34.907  40.452  0.00  0.00    -0.239 NA
ATOM      3  H   ASP A   1      34.116  34.570  40.540  0.00  0.00    +0.142 HD
ENDBRANCH   1   2
BRANCH   1   4
ATOM      4  C   ASP A   1      31.069  33.588  40.493  0.00  0.00    +0.225 C 
ATOM      5  O   ASP A   1      29.889  33.690  40.144  0.00  0.00    -0.287 OA
ENDBRANCH   1   4
BRANCH   1   6
ATOM      6  CB  ASP A   1      32.909  32.994  38.918  0.00  0.00    +0.139 C 
BRANCH   6   7
ATOM      7  CG  ASP A   1      33.984  33.463  37.958  0.00  0.00    +0.367 C 
ATOM      8  OD2 ASP A   1      35.103  32.921  38.033  0.00  0.00    -0.246 OA
ATOM      9  OD1 ASP A   1      33.720  34.354  37.123  0.00  0.00    -0.246 OA
ENDBRANCH   6   7
ENDBRANCH   1   6
TORSDOF 4
REMARK  Name = ../refined-set-2016/1hfs/1hfs_pocket.pdb
REMARK  269 active torsions:
REMARK  status: ('A' for Active; 'I' for Inactive)
REMARK    1  A    between atoms: _1  and  _3
REMARK    2  A    between atoms: _3  and  _4
REMARK    3  A    between atoms: _3  and  _6
REMARK    4  A    between atoms: _6  and  _7
REMARK    5  A    between atoms: _11  and  ZN_724
REMARK    6  A    between atoms: _12  and  _14
REMARK    7  A    between atoms: _14  and  _15
REMARK    8  A    between atoms: _14  and  _17
REMARK    9  A    between atoms: _17  and  _18
REMARK   10  A    between atoms: _18  and  _20
REMARK   11  A    between atoms: _20  and  ZN_724
REMARK   12  A    between atoms: _21  and  _23
REMARK   13  A    between atoms: _23  and  _24
REMARK   14  A    between atoms: _23  and  _26
REMARK   15  A    between atoms: _26  and  _27
REMARK   16  A    between atoms: _33  and  _35
REMARK   17  A    between atoms: _35  and  _36
REMARK   18  A    between atoms: _35  and  _38
REMARK   19  A    between atoms: _38  and  _39
REMARK   20  A    between atoms: _44  and  _45
REMARK   21  A    between atoms: _48  and  _49
REMARK   22  A    between atoms: _54  and  _56
REMARK   23  A    between atoms: _56  and  _57
REMARK   24  A    between atoms: _56  and  _59
REMARK   25  A    between atoms: _59  and  _60
REMARK   26  A    between atoms: _66  and  _68
REMARK   27  A    between atoms: _68  and  _69
REMARK   28  A    between atoms: _68  and  _71
REMARK   29  A    between atoms: _71  and  _72
REMARK   30  A    between atoms: _76  and  _77
REMARK   31  A    between atoms: _82  and  _84
REMARK   32  A    between atoms: _89  and  _92
REMARK   33  A    between atoms: _92  and  _93
REMARK   34  A    between atoms: _100  and  _103
REMARK   35  A    between atoms: _101  and  _106
REMARK   36  A    between atoms: _106  and  _108
REMARK   37  A    between atoms: _108  and  _109
REMARK   38  A    between atoms: _108  and  _111
REMARK   39  A    between atoms: _111  and  _112
REMARK   40  A    between atoms: _115  and  _117
REMARK   41  A    between atoms: _117  and  _118
REMARK   42  A    between atoms: _121  and  _123
REMARK   43  A    between atoms: _123  and  _124
REMARK   44  A    between atoms: _123  and  _126
REMARK   45  A    between atoms: _126  and  _127
REMARK   46  A    between atoms: _131  and  ZN_724
REMARK   47  A    between atoms: _132  and  _134
REMARK   48  A    between atoms: _134  and  _135
REMARK   49  A    between atoms: _138  and  _140
REMARK   50  A    between atoms: _140  and  _141
REMARK   51  A    between atoms: _140  and  _143
REMARK   52  A    between atoms: _143  and  _144
REMARK   53  A    between atoms: _149  and  _150
REMARK   54  A    between atoms: _152  and  _154
REMARK   55  A    between atoms: _154  and  _155
REMARK   56  A    between atoms: _158  and  _160
REMARK   57  A    between atoms: _160  and  _161
REMARK   58  A    between atoms: _160  and  _163
REMARK   59  A    between atoms: _163  and  _164
REMARK   60  A    between atoms: _167  and  _169
REMARK   61  A    between atoms: _169  and  _170
REMARK   62  A    between atoms: _172  and  _174
REMARK   63  A    between atoms: _174  and  _175
REMARK   64  A    between atoms: _174  and  _177
REMARK   65  A    between atoms: _177  and  _178
REMARK   66  A    between atoms: _181  and  _183
REMARK   67  A    between atoms: _183  and  _184
REMARK   68  A    between atoms: _183  and  _186
REMARK   69  A    between atoms: _186  and  _187
REMARK   70  A    between atoms: _188  and  ZN_724
REMARK   71  A    between atoms: _192  and  _194
REMARK   72  A    between atoms: _194  and  _195
REMARK   73  A    between atoms: _194  and  _197
REMARK   74  A    between atoms: _197  and  _198
REMARK   75  A    between atoms: _201  and  _203
REMARK   76  A    between atoms: _203  and  _204
REMARK   77  A    between atoms: _203  and  _206
REMARK   78  A    between atoms: _206  and  _207
REMARK   79  A    between atoms: _207  and  _208
REMARK   80  A    between atoms: _211  and  _213
REMARK   81  A    between atoms: _213  and  _214
REMARK   82  A    between atoms: _213  and  _216
REMARK   83  A    between atoms: _216  and  _217
REMARK   84  A    between atoms: _227  and  _229
REMARK   85  A    between atoms: _229  and  _230
REMARK   86  A    between atoms: _232  and  _234
REMARK   87  A    between atoms: _234  and  _235
REMARK   88  A    between atoms: _234  and  _237
REMARK   89  A    between atoms: _237  and  _238
REMARK   90  A    between atoms: _241  and  _243
REMARK   91  A    between atoms: _243  and  _244
REMARK   92  A    between atoms: _243  and  _246
REMARK   93  A    between atoms: _246  and  _247
REMARK   94  A    between atoms: _252  and  _254
REMARK   95  A    between atoms: _254  and  _255
REMARK   96  A    between atoms: _254  and  _257
REMARK   97  A    between atoms: _257  and  _258
REMARK   98  A    between atoms: _261  and  _263
REMARK   99  A    between atoms: _263  and  _264
REMARK  100  A    between atoms: _263  and  _266
REMARK  101  A    between atoms: _266  and  _267
REMARK  102  A    between atoms: _273  and  _275
REMARK  103  A    between atoms: _275  and  _276
REMARK  104  A    between atoms: _275  and  _278
REMARK  105  A    between atoms: _278  and  _279
REMARK  106  A    between atoms: _282  and  _284
REMARK  107  A    between atoms: _284  and  _285
REMARK  108  A    between atoms: _284  and  _287
REMARK  109  A    between atoms: _290  and  _292
REMARK  110  A    between atoms: _292  and  _293
REMARK  111  A    between atoms: _296  and  _298
REMARK  112  A    between atoms: _298  and  _299
REMARK  113  A    between atoms: _302  and  _304
REMARK  114  A    between atoms: _315  and  _318
REMARK  115  A    between atoms: _318  and  _319
REMARK  116  A    between atoms: _319  and  _320
REMARK  117  A    between atoms: _325  and  _328
REMARK  118  A    between atoms: _328  and  _329
REMARK  119  A    between atoms: _339  and  _340
REMARK  120  A    between atoms: _348  and  _350
REMARK  121  A    between atoms: _350  and  _351
REMARK  122  A    between atoms: _350  and  _353
REMARK  123  A    between atoms: _353  and  _354
REMARK  124  A    between atoms: _356  and  _358
REMARK  125  A    between atoms: _358  and  _359
REMARK  126  A    between atoms: _358  and  _361
REMARK  127  A    between atoms: _361  and  _362
REMARK  128  A    between atoms: _366  and  ZN_723
REMARK  129  A    between atoms: _367  and  _369
REMARK  130  A    between atoms: _369  and  _370
REMARK  131  A    between atoms: _369  and  _372
REMARK  132  A    between atoms: _372  and  _373
REMARK  133  A    between atoms: _375  and  _377
REMARK  134  A    between atoms: _377  and  _378
REMARK  135  A    between atoms: _377  and  _380
REMARK  136  A    between atoms: _380  and  _381
REMARK  137  A    between atoms: _386  and  _388
REMARK  138  A    between atoms: _388  and  _389
REMARK  139  A    between atoms: _388  and  _391
REMARK  140  A    between atoms: _391  and  _392
REMARK  141  A    between atoms: _395  and  _397
REMARK  142  A    between atoms: _397  and  _398
REMARK  143  A    between atoms: _397  and  _400
REMARK  144  A    between atoms: _400  and  _401
REMARK  145  A    between atoms: _401  and  _402
REMARK  146  A    between atoms: _405  and  _407
REMARK  147  A    between atoms: _407  and  _408
REMARK  148  A    between atoms: _411  and  _413
REMARK  149  A    between atoms: _413  and  _414
REMARK  150  A    between atoms: _413  and  _416
REMARK  151  A    between atoms: _416  and  _417
REMARK  152  A    between atoms: _420  and  _422
REMARK  153  A    between atoms: _422  and  _423
REMARK  154  A    between atoms: _422  and  _425
REMARK  155  A    between atoms: _425  and  _426
REMARK  156  A    between atoms: _426  and  _427
REMARK  157  A    between atoms: _429  and  _431
REMARK  158  A    between atoms: _431  and  _432
REMARK  159  A    between atoms: _431  and  _434
REMARK  160  A    between atoms: _434  and  _435
REMARK  161  A    between atoms: _440  and  _441
REMARK  162  A    between atoms: _444  and  _445
REMARK  163  A    between atoms: _450  and  _452
REMARK  164  A    between atoms: _452  and  _453
REMARK  165  A    between atoms: _452  and  _455
REMARK  166  A    between atoms: _455  and  _456
REMARK  167  A    between atoms: _459  and  _461
REMARK  168  A    between atoms: _461  and  _462
REMARK  169  A    between atoms: _461  and  _464
REMARK  170  A    between atoms: _464  and  _465
REMARK  171  A    between atoms: _470  and  _471
REMARK  172  A    between atoms: _473  and  _475
REMARK  173  A    between atoms: _475  and  _476
REMARK  174  A    between atoms: _475  and  _478
REMARK  175  A    between atoms: _478  and  _479
REMARK  176  A    between atoms: _484  and  _486
REMARK  177  A    between atoms: _486  and  _487
REMARK  178  A    between atoms: _486  and  _489
REMARK  179  A    between atoms: _489  and  _490
REMARK  180  A    between atoms: _492  and  _494
REMARK  181  A    between atoms: _494  and  _495
REMARK  182  A    between atoms: _494  and  _497
REMARK  183  A    between atoms: _497  and  _498
REMARK  184  A    between atoms: _501  and  _503
REMARK  185  A    between atoms: _503  and  _504
REMARK  186  A    between atoms: _503  and  _506
REMARK  187  A    between atoms: _506  and  _507
REMARK  188  A    between atoms: _510  and  _512
REMARK  189  A    between atoms: _512  and  _513
REMARK  190  A    between atoms: _512  and  _515
REMARK  191  A    between atoms: _515  and  _516
REMARK  192  A    between atoms: _519  and  _521
REMARK  193  A    between atoms: _521  and  _522
REMARK  194  A    between atoms: _521  and  _524
REMARK  195  A    between atoms: _524  and  _525
REMARK  196  A    between atoms: _528  and  _530
REMARK  197  A    between atoms: _530  and  _531
REMARK  198  A    between atoms: _530  and  _533
REMARK  199  A    between atoms: _533  and  _534
REMARK  200  A    between atoms: _534  and  _535
REMARK  201  A    between atoms: _535  and  _536
REMARK  202  A    between atoms: _545  and  _547
REMARK  203  A    between atoms: _547  and  _548
REMARK  204  A    between atoms: _547  and  _550
REMARK  205  A    between atoms: _550  and  _551
REMARK  206  A    between atoms: _557  and  _559
REMARK  207  A    between atoms: _559  and  _560
REMARK  208  A    between atoms: _559  and  _562
REMARK  209  A    between atoms: _562  and  _563
REMARK  210  A    between atoms: _563  and  _564
REMARK  211  A    between atoms: _564  and  _565
REMARK  212  A    between atoms: _574  and  _576
REMARK  213  A    between atoms: _576  and  _577
REMARK  214  A    between atoms: _576  and  _579
REMARK  215  A    between atoms: _579  and  _580
REMARK  216  A    between atoms: _582  and  _584
REMARK  217  A    between atoms: _584  and  _585
REMARK  218  A    between atoms: _584  and  _587
REMARK  219  A    between atoms: _587  and  _588
REMARK  220  A    between atoms: _591  and  _593
REMARK  221  A    between atoms: _593  and  _594
REMARK  222  A    between atoms: _593  and  _596
REMARK  223  A    between atoms: _596  and  _597
REMARK  224  A    between atoms: _601  and  _602
REMARK  225  A    between atoms: _607  and  _609
REMARK  226  A    between atoms: _609  and  _610
REMARK  227  A    between atoms: _609  and  _612
REMARK  228  A    between atoms: _612  and  _613
REMARK  229  A    between atoms: _618  and  _620
REMARK  230  A    between atoms: _620  and  _621
REMARK  231  A    between atoms: _620  and  _623
REMARK  232  A    between atoms: _623  and  _624
REMARK  233  A    between atoms: _627  and  _629
REMARK  234  A    between atoms: _629  and  _630
REMARK  235  A    between atoms: _629  and  _632
REMARK  236  A    between atoms: _632  and  _633
REMARK  237  A    between atoms: _639  and  _641
REMARK  238  A    between atoms: _641  and  _642
REMARK  239  A    between atoms: _641  and  _644
REMARK  240  A    between atoms: _644  and  _645
REMARK  241  A    between atoms: _650  and  _652
REMARK  242  A    between atoms: _652  and  _653
REMARK  243  A    between atoms: _652  and  _655
REMARK  244  A    between atoms: _655  and  _656
REMARK  245  A    between atoms: _658  and  _660
REMARK  246  A    between atoms: _660  and  _661
REMARK  247  A    between atoms: _664  and  _666
REMARK  248  A    between atoms: _666  and  _667
REMARK  249  A    between atoms: _666  and  _669
REMARK  250  A    between atoms: _669  and  _670
REMARK  251  A    between atoms: _675  and  _677
REMARK  252  A    between atoms: _677  and  _678
REMARK  253  A    between atoms: _677  and  _680
REMARK  254  A    between atoms: _680  and  _681
REMARK  255  A    between atoms: _684  and  _686
REMARK  256  A    between atoms: _686  and  _687
REMARK  257  A    between atoms: _686  and  _689
REMARK  258  A    between atoms: _689  and  _690
REMARK  259  A    between atoms: _690  and  _691
REMARK  260  A    between atoms: _693  and  _695
REMARK  261  A    between atoms: _695  and  _696
REMARK  262  A    between atoms: _695  and  _698
REMARK  263  A    between atoms: _698  and  _699
REMARK  264  A    between atoms: _704  and  _705
REMARK  265  A    between atoms: _708  and  _709
REMARK  266  A    between atoms: _714  and  _716
REMARK  267  A    between atoms: _716  and  _717
REMARK  268  A    between atoms: _716  and  _719
REMARK  269  A    between atoms: _719  and  _720
REMARK                            x       y       z     vdW  Elec       q    Type
REMARK                         _______ _______ _______ _____ _____    ______ ____
ROOT
ATOM      1  C   ILE A   1      17.791  44.202  19.532  0.00  0.00    +0.241 C 
ATOM      2  N   PRO A   2      18.534  44.488  20.618  0.00  0.00    -0.273 N 
ATOM      3  CA  PRO A   2      18.146  45.507  21.602  0.00  0.00    +0.140 C 
ATOM      4  CB  PRO A   2      18.995  45.134  22.816  0.00  0.00    +0.030 C 
ATOM      5  CG  PRO A   2      20.282  44.686  22.175  0.00  0.00    +0.024 C 
ATOM      6  CD  PRO A   2      19.799  43.832  21.008  0.00  0.00    +0.094 C 
ATOM      7  O   ILE A   1      16.725  44.782  19.302  0.00  0.00    -0.273 OA
ENDROOT
BRANCH   3   8
ATOM      8  C   PRO A   2      18.462  46.920  21.107  0.00  0.00    +0.227 C 
ATOM      9  O   PRO A   2      19.626  47.304  20.998  0.00  0.00    -0.286 OA
ENDBRANCH   3   8
BRANCH   1  10
ATOM     10  CA  ILE A   1      18.329  43.107  18.590  0.00  0.00    +0.145 C 
BRANCH  10  11
ATOM     11  N   ILE A   1      17.928  41.730  18.924  0.00  0.00    -0.238 NA
ATOM     12  H   ILE A   1      18.636  40.977  18.810  0.00  0.00    +0.142 HD
ENDBRANCH  10  11
BRANCH  10  13
ATOM     13  CB  ILE A   1      18.042  43.450  17.073  0.00  0.00    +0.025 C 
ATOM     14  CG2 ILE A   1      16.563  43.286  16.728  0.00  0.00    +0.002 C 
BRANCH  13  15
ATOM     15  CG1 ILE A   1      18.520  44.868  16.736  0.00  0.00    +0.002 C 
ATOM     16  CD1 ILE A   1      18.187  45.315  15.313  0.00  0.00    +0.000 C 
ENDBRANCH  13  15
ENDBRANCH  10  13
ENDBRANCH   1  10
TORSDOF 5
REMARK  Name = ../refined-set-2016/1hfs/1hfs_pocket.pdb
REMARK  269 active torsions:
REMARK  status: ('A' for Active; 'I' for Inactive)
REMARK    1  A    between atoms: _1  and  _3
REMARK    2  A    between atoms: _3  and  _4
REMARK    3  A    between atoms: _3  and  _6
REMARK    4  A    between atoms: _6  and  _7
REMARK    5  A    between atoms: _11  and  ZN_724
REMARK    6  A    between atoms: _12  and  _14
REMARK    7  A    between atoms: _14  and  _15
REMARK    8  A    between atoms: _14  and  _17
REMARK    9  A    between atoms: _17  and  _18
REMARK   10  A    between atoms: _18  and  _20
REMARK   11  A    between atoms: _20  and  ZN_724
REMARK   12  A    between atoms: _21  and  _23
REMARK   13  A    between atoms: _23  and  _24
REMARK   14  A    between atoms: _23  and  _26
REMARK   15  A    between atoms: _26  and  _27
REMARK   16  A    between atoms: _33  and  _35
REMARK   17  A    between atoms: _35  and  _36
REMARK   18  A    between atoms: _35  and  _38
REMARK   19  A    between atoms: _38  and  _39
REMARK   20  A    between atoms: _44  and  _45
REMARK   21  A    between atoms: _48  and  _49
REMARK   22  A    between atoms: _54  and  _56
REMARK   23  A    between atoms: _56  and  _57
REMARK   24  A    between atoms: _56  and  _59
REMARK   25  A    between atoms: _59  and  _60
REMARK   26  A    between atoms: _66  and  _68
REMARK   27  A    between atoms: _68  and  _69
REMARK   28  A    between atoms: _68  and  _71
REMARK   29  A    between atoms: _71  and  _72
REMARK   30  A    between atoms: _76  and  _77
REMARK   31  A    between atoms: _82  and  _84
REMARK   32  A    between atoms: _89  and  _92
REMARK   33  A    between atoms: _92  and  _93
REMARK   34  A    between atoms: _100  and  _103
REMARK   35  A    between atoms: _101  and  _106
REMARK   36  A    between atoms: _106  and  _108
REMARK   37  A    between atoms: _108  and  _109
REMARK   38  A    between atoms: _108  and  _111
REMARK   39  A    between atoms: _111  and  _112
REMARK   40  A    between atoms: _115  and  _117
REMARK   41  A    between atoms: _117  and  _118
REMARK   42  A    between atoms: _121  and  _123
REMARK   43  A    between atoms: _123  and  _124
REMARK   44  A    between atoms: _123  and  _126
REMARK   45  A    between atoms: _126  and  _127
REMARK   46  A    between atoms: _131  and  ZN_724
REMARK   47  A    between atoms: _132  and  _134
REMARK   48  A    between atoms: _134  and  _135
REMARK   49  A    between atoms: _138  and  _140
REMARK   50  A    between atoms: _140  and  _141
REMARK   51  A    between atoms: _140  and  _143
REMARK   52  A    between atoms: _143  and  _144
REMARK   53  A    between atoms: _149  and  _150
REMARK   54  A    between atoms: _152  and  _154
REMARK   55  A    between atoms: _154  and  _155
REMARK   56  A    between atoms: _158  and  _160
REMARK   57  A    between atoms: _160  and  _161
REMARK   58  A    between atoms: _160  and  _163
REMARK   59  A    between atoms: _163  and  _164
REMARK   60  A    between atoms: _167  and  _169
REMARK   61  A    between atoms: _169  and  _170
REMARK   62  A    between atoms: _172  and  _174
REMARK   63  A    between atoms: _174  and  _175
REMARK   64  A    between atoms: _174  and  _177
REMARK   65  A    between atoms: _177  and  _178
REMARK   66  A    between atoms: _181  and  _183
REMARK   67  A    between atoms: _183  and  _184
REMARK   68  A    between atoms: _183  and  _186
REMARK   69  A    between atoms: _186  and  _187
REMARK   70  A    between atoms: _188  and  ZN_724
REMARK   71  A    between atoms: _192  and  _194
REMARK   72  A    between atoms: _194  and  _195
REMARK   73  A    between atoms: _194  and  _197
REMARK   74  A    between atoms: _197  and  _198
REMARK   75  A    between atoms: _201  and  _203
REMARK   76  A    between atoms: _203  and  _204
REMARK   77  A    between atoms: _203  and  _206
REMARK   78  A    between atoms: _206  and  _207
REMARK   79  A    between atoms: _207  and  _208
REMARK   80  A    between atoms: _211  and  _213
REMARK   81  A    between atoms: _213  and  _214
REMARK   82  A    between atoms: _213  and  _216
REMARK   83  A    between atoms: _216  and  _217
REMARK   84  A    between atoms: _227  and  _229
REMARK   85  A    between atoms: _229  and  _230
REMARK   86  A    between atoms: _232  and  _234
REMARK   87  A    between atoms: _234  and  _235
REMARK   88  A    between atoms: _234  and  _237
REMARK   89  A    between atoms: _237  and  _238
REMARK   90  A    between atoms: _241  and  _243
REMARK   91  A    between atoms: _243  and  _244
REMARK   92  A    between atoms: _243  and  _246
REMARK   93  A    between atoms: _246  and  _247
REMARK   94  A    between atoms: _252  and  _254
REMARK   95  A    between atoms: _254  and  _255
REMARK   96  A    between atoms: _254  and  _257
REMARK   97  A    between atoms: _257  and  _258
REMARK   98  A    between atoms: _261  and  _263
REMARK   99  A    between atoms: _263  and  _264
REMARK  100  A    between atoms: _263  and  _266
REMARK  101  A    between atoms: _266  and  _267
REMARK  102  A    between atoms: _273  and  _275
REMARK  103  A    between atoms: _275  and  _276
REMARK  104  A    between atoms: _275  and  _278
REMARK  105  A    between atoms: _278  and  _279
REMARK  106  A    between atoms: _282  and  _284
REMARK  107  A    between atoms: _284  and  _285
REMARK  108  A    between atoms: _284  and  _287
REMARK  109  A    between atoms: _290  and  _292
REMARK  110  A    between atoms: _292  and  _293
REMARK  111  A    between atoms: _296  and  _298
REMARK  112  A    between atoms: _298  and  _299
REMARK  113  A    between atoms: _302  and  _304
REMARK  114  A    between atoms: _315  and  _318
REMARK  115  A    between atoms: _318  and  _319
REMARK  116  A    between atoms: _319  and  _320
REMARK  117  A    between atoms: _325  and  _328
REMARK  118  A    between atoms: _328  and  _329
REMARK  119  A    between atoms: _339  and  _340
REMARK  120  A    between atoms: _348  and  _350
REMARK  121  A    between atoms: _350  and  _351
REMARK  122  A    between atoms: _350  and  _353
REMARK  123  A    between atoms: _353  and  _354
REMARK  124  A    between atoms: _356  and  _358
REMARK  125  A    between atoms: _358  and  _359
REMARK  126  A    between atoms: _358  and  _361
REMARK  127  A    between atoms: _361  and  _362
REMARK  128  A    between atoms: _366  and  ZN_723
REMARK  129  A    between atoms: _367  and  _369
REMARK  130  A    between atoms: _369  and  _370
REMARK  131  A    between atoms: _369  and  _372
REMARK  132  A    between atoms: _372  and  _373
REMARK  133  A    between atoms: _375  and  _377
REMARK  134  A    between atoms: _377  and  _378
REMARK  135  A    between atoms: _377  and  _380
REMARK  136  A    between atoms: _380  and  _381
REMARK  137  A    between atoms: _386  and  _388
REMARK  138  A    between atoms: _388  and  _389
REMARK  139  A    between atoms: _388  and  _391
REMARK  140  A    between atoms: _391  and  _392
REMARK  141  A    between atoms: _395  and  _397
REMARK  142  A    between atoms: _397  and  _398
REMARK  143  A    between atoms: _397  and  _400
REMARK  144  A    between atoms: _400  and  _401
REMARK  145  A    between atoms: _401  and  _402
REMARK  146  A    between atoms: _405  and  _407
REMARK  147  A    between atoms: _407  and  _408
REMARK  148  A    between atoms: _411  and  _413
REMARK  149  A    between atoms: _413  and  _414
REMARK  150  A    between atoms: _413  and  _416
REMARK  151  A    between atoms: _416  and  _417
REMARK  152  A    between atoms: _420  and  _422
REMARK  153  A    between atoms: _422  and  _423
REMARK  154  A    between atoms: _422  and  _425
REMARK  155  A    between atoms: _425  and  _426
REMARK  156  A    between atoms: _426  and  _427
REMARK  157  A    between atoms: _429  and  _431
REMARK  158  A    between atoms: _431  and  _432
REMARK  159  A    between atoms: _431  and  _434
REMARK  160  A    between atoms: _434  and  _435
REMARK  161  A    between atoms: _440  and  _441
REMARK  162  A    between atoms: _444  and  _445
REMARK  163  A    between atoms: _450  and  _452
REMARK  164  A    between atoms: _452  and  _453
REMARK  165  A    between atoms: _452  and  _455
REMARK  166  A    between atoms: _455  and  _456
REMARK  167  A    between atoms: _459  and  _461
REMARK  168  A    between atoms: _461  and  _462
REMARK  169  A    between atoms: _461  and  _464
REMARK  170  A    between atoms: _464  and  _465
REMARK  171  A    between atoms: _470  and  _471
REMARK  172  A    between atoms: _473  and  _475
REMARK  173  A    between atoms: _475  and  _476
REMARK  174  A    between atoms: _475  and  _478
REMARK  175  A    between atoms: _478  and  _479
REMARK  176  A    between atoms: _484  and  _486
REMARK  177  A    between atoms: _486  and  _487
REMARK  178  A    between atoms: _486  and  _489
REMARK  179  A    between atoms: _489  and  _490
REMARK  180  A    between atoms: _492  and  _494
REMARK  181  A    between atoms: _494  and  _495
REMARK  182  A    between atoms: _494  and  _497
REMARK  183  A    between atoms: _497  and  _498
REMARK  184  A    between atoms: _501  and  _503
REMARK  185  A    between atoms: _503  and  _504
REMARK  186  A    between atoms: _503  and  _506
REMARK  187  A    between atoms: _506  and  _507
REMARK  188  A    between atoms: _510  and  _512
REMARK  189  A    between atoms: _512  and  _513
REMARK  190  A    between atoms: _512  and  _515
REMARK  191  A    between atoms: _515  and  _516
REMARK  192  A    between atoms: _519  and  _521
REMARK  193  A    between atoms: _521  and  _522
REMARK  194  A    between atoms: _521  and  _524
REMARK  195  A    between atoms: _524  and  _525
REMARK  196  A    between atoms: _528  and  _530
REMARK  197  A    between atoms: _530  and  _531
REMARK  198  A    between atoms: _530  and  _533
REMARK  199  A    between atoms: _533  and  _534
REMARK  200  A    between atoms: _534  and  _535
REMARK  201  A    between atoms: _535  and  _536
REMARK  202  A    between atoms: _545  and  _547
REMARK  203  A    between atoms: _547  and  _548
REMARK  204  A    between atoms: _547  and  _550
REMARK  205  A    between atoms: _550  and  _551
REMARK  206  A    between atoms: _557  and  _559
REMARK  207  A    between atoms: _559  and  _560
REMARK  208  A    between atoms: _559  and  _562
REMARK  209  A    between atoms: _562  and  _563
REMARK  210  A    between atoms: _563  and  _564
REMARK  211  A    between atoms: _564  and  _565
REMARK  212  A    between atoms: _574  and  _576
REMARK  213  A    between atoms: _576  and  _577
REMARK  214  A    between atoms: _576  and  _579
REMARK  215  A    between atoms: _579  and  _580
REMARK  216  A    between atoms: _582  and  _584
REMARK  217  A    between atoms: _584  and  _585
REMARK  218  A    between atoms: _584  and  _587
REMARK  219  A    between atoms: _587  and  _588
REMARK  220  A    between atoms: _591  and  _593
REMARK  221  A    between atoms: _593  and  _594
REMARK  222  A    between atoms: _593  and  _596
REMARK  223  A    between atoms: _596  and  _597
REMARK  224  A    between atoms: _601  and  _602
REMARK  225  A    between atoms: _607  and  _609
REMARK  226  A    between atoms: _609  and  _610
REMARK  227  A    between atoms: _609  and  _612
REMARK  228  A    between atoms: _612  and  _613
REMARK  229  A    between atoms: _618  and  _620
REMARK  230  A    between atoms: _620  and  _621
REMARK  231  A    between atoms: _620  and  _623
REMARK  232  A    between atoms: _623  and  _624
REMARK  233  A    between atoms: _627  and  _629
REMARK  234  A    between atoms: _629  and  _630
REMARK  235  A    between atoms: _629  and  _632
REMARK  236  A    between atoms: _632  and  _633
REMARK  237  A    between atoms: _639  and  _641
REMARK  238  A    between atoms: _641  and  _642
REMARK  239  A    between atoms: _641  and  _644
REMARK  240  A    between atoms: _644  and  _645
REMARK  241  A    between atoms: _650  and  _652
REMARK  242  A    between atoms: _652  and  _653
REMARK  243  A    between atoms: _652  and  _655
REMARK  244  A    between atoms: _655  and  _656
REMARK  245  A    between atoms: _658  and  _660
REMARK  246  A    between atoms: _660  and  _661
REMARK  247  A    between atoms: _664  and  _666
REMARK  248  A    between atoms: _666  and  _667
REMARK  249  A    between atoms: _666  and  _669
REMARK  250  A    between atoms: _669  and  _670
REMARK  251  A    between atoms: _675  and  _677
REMARK  252  A    between atoms: _677  and  _678
REMARK  253  A    between atoms: _677  and  _680
REMARK  254  A    between atoms: _680  and  _681
REMARK  255  A    between atoms: _684  and  _686
REMARK  256  A    between atoms: _686  and  _687
REMARK  257  A    between atoms: _686  and  _689
REMARK  258  A    between atoms: _689  and  _690
REMARK  259  A    between atoms: _690  and  _691
REMARK  260  A    between atoms: _693  and  _695
REMARK  261  A    between atoms: _695  and  _696
REMARK  262  A    between atoms: _695  and  _698
REMARK  263  A    between atoms: _698  and  _699
REMARK  264  A    between atoms: _704  and  _705
REMARK  265  A    between atoms: _708  and  _709
REMARK  266  A    between atoms: _714  and  _716
REMARK  267  A    between atoms: _716  and  _717
REMARK  268  A    between atoms: _716  and  _719
REMARK  269  A    between atoms: _719  and  _720
REMARK                            x       y       z     vdW  Elec       q    Type
REMARK                         _______ _______ _______ _____ _____    ______ ____
ROOT
ATOM      1  CB  HIS A   1      26.820  50.138  26.618  0.00  0.00    +0.072 C 
ENDROOT
BRANCH   1   2
ATOM      2  CG  HIS A   1      28.084  49.334  26.538  0.00  0.00    +0.082 A 
ATOM      3  CD2 HIS A   1      29.250  49.471  27.213  0.00  0.00    +0.115 A 
ATOM      4  NE2 HIS A   1      30.141  48.447  26.841  0.00  0.00    -0.221 NA
ATOM      5  CE1 HIS A   1      29.475  47.730  25.948  0.00  0.00    +0.199 A 
ATOM      6  ND1 HIS A   1      28.248  48.227  25.737  0.00  0.00    -0.227 NA
ENDBRANCH   1   2
BRANCH   1   7
ATOM      7  CA  HIS A   1      26.222  50.505  25.255  0.00  0.00    +0.139 C 
BRANCH   7   8
ATOM      8  N   HIS A   1      26.987  51.573  24.613  0.00  0.00    -0.239 NA
ATOM      9  H   HIS A   1      27.722  52.065  25.160  0.00  0.00    +0.142 HD
ENDBRANCH   7   8
BRANCH   7  10
ATOM     10  C   HIS A   1      24.764  50.929  25.439  0.00  0.00    +0.224 C 
ATOM     11  O   HIS A   1      23.849  50.128  25.224  0.00  0.00    -0.287 OA
ENDBRANCH   7  10
ENDBRANCH   1   7
TORSDOF 4
REMARK  Name = ../refined-set-2016/1hfs/1hfs_pocket.pdb
REMARK  269 active torsions:
REMARK  status: ('A' for Active; 'I' for Inactive)
REMARK    1  A    between atoms: _1  and  _3
REMARK    2  A    between atoms: _3  and  _4
REMARK    3  A    between atoms: _3  and  _6
REMARK    4  A    between atoms: _6  and  _7
REMARK    5  A    between atoms: _11  and  ZN_724
REMARK    6  A    between atoms: _12  and  _14
REMARK    7  A    between atoms: _14  and  _15
REMARK    8  A    between atoms: _14  and  _17
REMARK    9  A    between atoms: _17  and  _18
REMARK   10  A    between atoms: _18  and  _20
REMARK   11  A    between atoms: _20  and  ZN_724
REMARK   12  A    between atoms: _21  and  _23
REMARK   13  A    between atoms: _23  and  _24
REMARK   14  A    between atoms: _23  and  _26
REMARK   15  A    between atoms: _26  and  _27
REMARK   16  A    between atoms: _33  and  _35
REMARK   17  A    between atoms: _35  and  _36
REMARK   18  A    between atoms: _35  and  _38
REMARK   19  A    between atoms: _38  and  _39
REMARK   20  A    between atoms: _44  and  _45
REMARK   21  A    between atoms: _48  and  _49
REMARK   22  A    between atoms: _54  and  _56
REMARK   23  A    between atoms: _56  and  _57
REMARK   24  A    between atoms: _56  and  _59
REMARK   25  A    between atoms: _59  and  _60
REMARK   26  A    between atoms: _66  and  _68
REMARK   27  A    between atoms: _68  and  _69
REMARK   28  A    between atoms: _68  and  _71
REMARK   29  A    between atoms: _71  and  _72
REMARK   30  A    between atoms: _76  and  _77
REMARK   31  A    between atoms: _82  and  _84
REMARK   32  A    between atoms: _89  and  _92
REMARK   33  A    between atoms: _92  and  _93
REMARK   34  A    between atoms: _100  and  _103
REMARK   35  A    between atoms: _101  and  _106
REMARK   36  A    between atoms: _106  and  _108
REMARK   37  A    between atoms: _108  and  _109
REMARK   38  A    between atoms: _108  and  _111
REMARK   39  A    between atoms: _111  and  _112
REMARK   40  A    between atoms: _115  and  _117
REMARK   41  A    between atoms: _117  and  _118
REMARK   42  A    between atoms: _121  and  _123
REMARK   43  A    between atoms: _123  and  _124
REMARK   44  A    between atoms: _123  and  _126
REMARK   45  A    between atoms: _126  and  _127
REMARK   46  A    between atoms: _131  and  ZN_724
REMARK   47  A    between atoms: _132  and  _134
REMARK   48  A    between atoms: _134  and  _135
REMARK   49  A    between atoms: _138  and  _140
REMARK   50  A    between atoms: _140  and  _141
REMARK   51  A    between atoms: _140  and  _143
REMARK   52  A    between atoms: _143  and  _144
REMARK   53  A    between atoms: _149  and  _150
REMARK   54  A    between atoms: _152  and  _154
REMARK   55  A    between atoms: _154  and  _155
REMARK   56  A    between atoms: _158  and  _160
REMARK   57  A    between atoms: _160  and  _161
REMARK   58  A    between atoms: _160  and  _163
REMARK   59  A    between atoms: _163  and  _164
REMARK   60  A    between atoms: _167  and  _169
REMARK   61  A    between atoms: _169  and  _170
REMARK   62  A    between atoms: _172  and  _174
REMARK   63  A    between atoms: _174  and  _175
REMARK   64  A    between atoms: _174  and  _177
REMARK   65  A    between atoms: _177  and  _178
REMARK   66  A    between atoms: _181  and  _183
REMARK   67  A    between atoms: _183  and  _184
REMARK   68  A    between atoms: _183  and  _186
REMARK   69  A    between atoms: _186  and  _187
REMARK   70  A    between atoms: _188  and  ZN_724
REMARK   71  A    between atoms: _192  and  _194
REMARK   72  A    between atoms: _194  and  _195
REMARK   73  A    between atoms: _194  and  _197
REMARK   74  A    between atoms: _197  and  _198
REMARK   75  A    between atoms: _201  and  _203
REMARK   76  A    between atoms: _203  and  _204
REMARK   77  A    between atoms: _203  and  _206
REMARK   78  A    between atoms: _206  and  _207
REMARK   79  A    between atoms: _207  and  _208
REMARK   80  A    between atoms: _211  and  _213
REMARK   81  A    between atoms: _213  and  _214
REMARK   82  A    between atoms: _213  and  _216
REMARK   83  A    between atoms: _216  and  _217
REMARK   84  A    between atoms: _227  and  _229
REMARK   85  A    between atoms: _229  and  _230
REMARK   86  A    between atoms: _232  and  _234
REMARK   87  A    between atoms: _234  and  _235
REMARK   88  A    between atoms: _234  and  _237
REMARK   89  A    between atoms: _237  and  _238
REMARK   90  A    between atoms: _241  and  _243
REMARK   91  A    between atoms: _243  and  _244
REMARK   92  A    between atoms: _243  and  _246
REMARK   93  A    between atoms: _246  and  _247
REMARK   94  A    between atoms: _252  and  _254
REMARK   95  A    between atoms: _254  and  _255
REMARK   96  A    between atoms: _254  and  _257
REMARK   97  A    between atoms: _257  and  _258
REMARK   98  A    between atoms: _261  and  _263
REMARK   99  A    between atoms: _263  and  _264
REMARK  100  A    between atoms: _263  and  _266
REMARK  101  A    between atoms: _266  and  _267
REMARK  102  A    between atoms: _273  and  _275
REMARK  103  A    between atoms: _275  and  _276
REMARK  104  A    between atoms: _275  and  _278
REMARK  105  A    between atoms: _278  and  _279
REMARK  106  A    between atoms: _282  and  _284
REMARK  107  A    between atoms: _284  and  _285
REMARK  108  A    between atoms: _284  and  _287
REMARK  109  A    between atoms: _290  and  _292
REMARK  110  A    between atoms: _292  and  _293
REMARK  111  A    between atoms: _296  and  _298
REMARK  112  A    between atoms: _298  and  _299
REMARK  113  A    between atoms: _302  and  _304
REMARK  114  A    between atoms: _315  and  _318
REMARK  115  A    between atoms: _318  and  _319
REMARK  116  A    between atoms: _319  and  _320
REMARK  117  A    between atoms: _325  and  _328
REMARK  118  A    between atoms: _328  and  _329
REMARK  119  A    between atoms: _339  and  _340
REMARK  120  A    between atoms: _348  and  _350
REMARK  121  A    between atoms: _350  and  _351
REMARK  122  A    between atoms: _350  and  _353
REMARK  123  A    between atoms: _353  and  _354
REMARK  124  A    between atoms: _356  and  _358
REMARK  125  A    between atoms: _358  and  _359
REMARK  126  A    between atoms: _358  and  _361
REMARK  127  A    between atoms: _361  and  _362
REMARK  128  A    between atoms: _366  and  ZN_723
REMARK  129  A    between atoms: _367  and  _369
REMARK  130  A    between atoms: _369  and  _370
REMARK  131  A    between atoms: _369  and  _372
REMARK  132  A    between atoms: _372  and  _373
REMARK  133  A    between atoms: _375  and  _377
REMARK  134  A    between atoms: _377  and  _378
REMARK  135  A    between atoms: _377  and  _380
REMARK  136  A    between atoms: _380  and  _381
REMARK  137  A    between atoms: _386  and  _388
REMARK  138  A    between atoms: _388  and  _389
REMARK  139  A    between atoms: _388  and  _391
REMARK  140  A    between atoms: _391  and  _392
REMARK  141  A    between atoms: _395  and  _397
REMARK  142  A    between atoms: _397  and  _398
REMARK  143  A    between atoms: _397  and  _400
REMARK  144  A    between atoms: _400  and  _401
REMARK  145  A    between atoms: _401  and  _402
REMARK  146  A    between atoms: _405  and  _407
REMARK  147  A    between atoms: _407  and  _408
REMARK  148  A    between atoms: _411  and  _413
REMARK  149  A    between atoms: _413  and  _414
REMARK  150  A    between atoms: _413  and  _416
REMARK  151  A    between atoms: _416  and  _417
REMARK  152  A    between atoms: _420  and  _422
REMARK  153  A    between atoms: _422  and  _423
REMARK  154  A    between atoms: _422  and  _425
REMARK  155  A    between atoms: _425  and  _426
REMARK  156  A    between atoms: _426  and  _427
REMARK  157  A    between atoms: _429  and  _431
REMARK  158  A    between atoms: _431  and  _432
REMARK  159  A    between atoms: _431  and  _434
REMARK  160  A    between atoms: _434  and  _435
REMARK  161  A    between atoms: _440  and  _441
REMARK  162  A    between atoms: _444  and  _445
REMARK  163  A    between atoms: _450  and  _452
REMARK  164  A    between atoms: _452  and  _453
REMARK  165  A    between atoms: _452  and  _455
REMARK  166  A    between atoms: _455  and  _456
REMARK  167  A    between atoms: _459  and  _461
REMARK  168  A    between atoms: _461  and  _462
REMARK  169  A    between atoms: _461  and  _464
REMARK  170  A    between atoms: _464  and  _465
REMARK  171  A    between atoms: _470  and  _471
REMARK  172  A    between atoms: _473  and  _475
REMARK  173  A    between atoms: _475  and  _476
REMARK  174  A    between atoms: _475  and  _478
REMARK  175  A    between atoms: _478  and  _479
REMARK  176  A    between atoms: _484  and  _486
REMARK  177  A    between atoms: _486  and  _487
REMARK  178  A    between atoms: _486  and  _489
REMARK  179  A    between atoms: _489  and  _490
REMARK  180  A    between atoms: _492  and  _494
REMARK  181  A    between atoms: _494  and  _495
REMARK  182  A    between atoms: _494  and  _497
REMARK  183  A    between atoms: _497  and  _498
REMARK  184  A    between atoms: _501  and  _503
REMARK  185  A    between atoms: _503  and  _504
REMARK  186  A    between atoms: _503  and  _506
REMARK  187  A    between atoms: _506  and  _507
REMARK  188  A    between atoms: _510  and  _512
REMARK  189  A    between atoms: _512  and  _513
REMARK  190  A    between atoms: _512  and  _515
REMARK  191  A    between atoms: _515  and  _516
REMARK  192  A    between atoms: _519  and  _521
REMARK  193  A    between atoms: _521  and  _522
REMARK  194  A    between atoms: _521  and  _524
REMARK  195  A    between atoms: _524  and  _525
REMARK  196  A    between atoms: _528  and  _530
REMARK  197  A    between atoms: _530  and  _531
REMARK  198  A    between atoms: _530  and  _533
REMARK  199  A    between atoms: _533  and  _534
REMARK  200  A    between atoms: _534  and  _535
REMARK  201  A    between atoms: _535  and  _536
REMARK  202  A    between atoms: _545  and  _547
REMARK  203  A    between atoms: _547  and  _548
REMARK  204  A    between atoms: _547  and  _550
REMARK  205  A    between atoms: _550  and  _551
REMARK  206  A    between atoms: _557  and  _559
REMARK  207  A    between atoms: _559  and  _560
REMARK  208  A    between atoms: _559  and  _562
REMARK  209  A    between atoms: _562  and  _563
REMARK  210  A    between atoms: _563  and  _564
REMARK  211  A    between atoms: _564  and  _565
REMARK  212  A    between atoms: _574  and  _576
REMARK  213  A    between atoms: _576  and  _577
REMARK  214  A    between atoms: _576  and  _579
REMARK  215  A    between atoms: _579  and  _580
REMARK  216  A    between atoms: _582  and  _584
REMARK  217  A    between atoms: _584  and  _585
REMARK  218  A    between atoms: _584  and  _587
REMARK  219  A    between atoms: _587  and  _588
REMARK  220  A    between atoms: _591  and  _593
REMARK  221  A    between atoms: _593  and  _594
REMARK  222  A    between atoms: _593  and  _596
REMARK  223  A    between atoms: _596  and  _597
REMARK  224  A    between atoms: _601  and  _602
REMARK  225  A    between atoms: _607  and  _609
REMARK  226  A    between atoms: _609  and  _610
REMARK  227  A    between atoms: _609  and  _612
REMARK  228  A    between atoms: _612  and  _613
REMARK  229  A    between atoms: _618  and  _620
REMARK  230  A    between atoms: _620  and  _621
REMARK  231  A    between atoms: _620  and  _623
REMARK  232  A    between atoms: _623  and  _624
REMARK  233  A    between atoms: _627  and  _629
REMARK  234  A    between atoms: _629  and  _630
REMARK  235  A    between atoms: _629  and  _632
REMARK  236  A    between atoms: _632  and  _633
REMARK  237  A    between atoms: _639  and  _641
REMARK  238  A    between atoms: _641  and  _642
REMARK  239  A    between atoms: _641  and  _644
REMARK  240  A    between atoms: _644  and  _645
REMARK  241  A    between atoms: _650  and  _652
REMARK  242  A    between atoms: _652  and  _653
REMARK  243  A    between atoms: _652  and  _655
REMARK  244  A    between atoms: _655  and  _656
REMARK  245  A    between atoms: _658  and  _660
REMARK  246  A    between atoms: _660  and  _661
REMARK  247  A    between atoms: _664  and  _666
REMARK  248  A    between atoms: _666  and  _667
REMARK  249  A    between atoms: _666  and  _669
REMARK  250  A    between atoms: _669  and  _670
REMARK  251  A    between atoms: _675  and  _677
REMARK  252  A    between atoms: _677  and  _678
REMARK  253  A    between atoms: _677  and  _680
REMARK  254  A    between atoms: _680  and  _681
REMARK  255  A    between atoms: _684  and  _686
REMARK  256  A    between atoms: _686  and  _687
REMARK  257  A    between atoms: _686  and  _689
REMARK  258  A    between atoms: _689  and  _690
REMARK  259  A    between atoms: _690  and  _691
REMARK  260  A    between atoms: _693  and  _695
REMARK  261  A    between atoms: _695  and  _696
REMARK  262  A    between atoms: _695  and  _698
REMARK  263  A    between atoms: _698  and  _699
REMARK  264  A    between atoms: _704  and  _705
REMARK  265  A    between atoms: _708  and  _709
REMARK  266  A    between atoms: _714  and  _716
REMARK  267  A    between atoms: _716  and  _717
REMARK  268  A    between atoms: _716  and  _719
REMARK  269  A    between atoms: _719  and  _720
REMARK                            x       y       z     vdW  Elec       q    Type
REMARK                         _______ _______ _______ _____ _____    ______ ____
ROOT
ATOM      1  C   HIS A   3      32.635  44.714  21.122  0.00  0.00    +0.241 C 
ATOM      2  N   SER A   4      33.755  45.295  20.714  0.00  0.00    -0.295 N 
ATOM      3  H   SER A   4      34.187  46.019  21.322  0.00  0.00    +0.150 HD
ATOM      4  O   HIS A   3      32.039  43.860  20.464  0.00  0.00    -0.273 OA
ENDROOT
BRANCH   2   5
ATOM      5  CA  SER A   4      34.405  44.968  19.460  0.00  0.00    +0.178 C 
BRANCH   5   6
ATOM      6  C   SER A   4      35.719  44.249  19.758  0.00  0.00    +0.243 C 
ATOM      7  O   SER A   4      36.293  44.409  20.838  0.00  0.00    -0.273 OA
ATOM      8  N   ALA A   5      36.182  43.446  18.803  0.00  0.00    -0.297 N 
ATOM      9  H   ALA A   5      35.636  43.343  17.924  0.00  0.00    +0.150 HD
BRANCH   8  10
ATOM     10  CA  ALA A   5      37.434  42.704  18.949  0.00  0.00    +0.149 C 
ATOM     11  CB  ALA A   5      37.361  41.391  18.172  0.00  0.00    +0.031 C 
BRANCH  10  12
ATOM     12  C   ALA A   5      38.629  43.529  18.478  0.00  0.00    +0.241 C 
ATOM     13  O   ALA A   5      39.776  43.144  18.693  0.00  0.00    -0.273 OA
ATOM     14  N   ASN A   6      38.356  44.652  17.816  0.00  0.00    -0.297 N 
ATOM     15  H   ASN A   6      37.362  44.911  17.652  0.00  0.00    +0.150 HD
BRANCH  14  16
ATOM     16  CA  ASN A   6      39.408  45.530  17.313  0.00  0.00    +0.158 C 
BRANCH  16  17
ATOM     17  C   ASN A   6      39.998  46.323  18.472  0.00  0.00    +0.241 C 
ATOM     18  O   ASN A   6      39.306  47.129  19.098  0.00  0.00    -0.273 OA
ATOM     19  N   THR A   7      41.288  46.130  18.721  0.00  0.00    -0.296 N 
ATOM     20  H   THR A   7      41.826  45.480  18.113  0.00  0.00    +0.150 HD
BRANCH  19  21
ATOM     21  CA  THR A   7      41.975  46.801  19.820  0.00  0.00    +0.164 C 
BRANCH  21  22
ATOM     22  CB  THR A   7      43.440  46.350  19.919  0.00  0.00    +0.136 C 
ATOM     23  CG2 THR A   7      43.516  44.897  20.362  0.00  0.00    +0.034 C 
BRANCH  22  24
ATOM     24  OG1 THR A   7      44.066  46.497  18.640  0.00  0.00    -0.382 OA
ATOM     25  HG1 THR A   7      45.011  46.207  18.701  0.00  0.00    +0.210 HD
ENDBRANCH  22  24
ENDBRANCH  21  22
BRANCH  21  26
ATOM     26  C   THR A   7      41.941  48.321  19.745  0.00  0.00    +0.229 C 
ATOM     27  O   THR A   7      42.135  49.001  20.753  0.00  0.00    -0.286 OA
ENDBRANCH  21  26
ENDBRANCH  19  21
ENDBRANCH  16  17
BRANCH  16  28
ATOM     28  CB  ASN A   6      38.840  46.486  16.265  0.00  0.00    +0.114 C 
BRANCH  28  29
ATOM     29  CG  ASN A   6      39.914  47.290  15.563  0.00  0.00    +0.222 C 
ATOM     30  OD1 ASN A   6      41.046  47.399  16.034  0.00  0.00    -0.275 OA
ATOM     31  ND2 ASN A   6      39.559  47.871  14.432  0.00  0.00    -0.329 N 
ATOM     32 HD21 ASN A   6      38.592  47.754  14.068  0.00  0.00    +0.145 HD
ATOM     33 HD22 ASN A   6      40.247  48.446  13.905  0.00  0.00    +0.145 HD
ENDBRANCH  28  29
ENDBRANCH  16  28
ENDBRANCH  14  16
ENDBRANCH  10  12
ENDBRANCH   8  10
ENDBRANCH   5   6
BRANCH   5  34
ATOM     34  CB  SER A   4      34.669  46.253  18.675  0.00  0.00    +0.166 C 
BRANCH  34  35
ATOM     35  OG  SER A   4      35.534  46.034  17.575  0.00  0.00    -0.380 OA
ATOM     36  H   SER A   4      35.679  46.888  17.095  0.00  0.00    +0.211 HD
ENDBRANCH  34  35
ENDBRANCH   5  34
ENDBRANCH   2   5
BRANCH   1  37
ATOM     37  CA  HIS A   3      32.109  45.187  22.474  0.00  0.00    +0.155 C 
BRANCH  37  39
ATOM     38  C   PHE A   2      29.762  45.576  22.031  0.00  0.00    +0.241 C 
ATOM     39  N   HIS A   3      30.698  44.893  22.677  0.00  0.00    -0.297 N 
ATOM     40  H   HIS A   3      30.420  44.138  23.336  0.00  0.00    +0.150 HD
ATOM     41  O   PHE A   2      30.029  46.476  21.231  0.00  0.00    -0.273 OA
BRANCH  38  42
ATOM     42  CA  PHE A   2      28.308  45.193  22.298  0.00  0.00    +0.153 C 
BRANCH  42  45
ATOM     43  C   LEU A   1      26.918  47.183  22.072  0.00  0.00    +0.238 C 
ATOM     44  O   LEU A   1      26.825  47.346  23.282  0.00  0.00    -0.274 OA
ATOM     45  N   PHE A   2      27.556  46.162  21.519  0.00  0.00    -0.297 N 
ATOM     46  H   PHE A   2      27.517  46.050  20.486  0.00  0.00    +0.150 HD
BRANCH  43  47
ATOM     47  CA  LEU A   1      26.261  48.143  21.101  0.00  0.00    +0.145 C 
BRANCH  47  48
ATOM     48  N   LEU A   1      25.052  48.777  21.620  0.00  0.00    -0.238 NA
ATOM     49  H   LEU A   1      25.104  49.737  22.018  0.00  0.00    +0.142 HD
ENDBRANCH  47  48
BRANCH  47  50
ATOM     50  CB  LEU A   1      27.302  49.189  20.694  0.00  0.00    +0.026 C 
BRANCH  50  51
ATOM     51  CG  LEU A   1      26.971  50.167  19.569  0.00  0.00    +0.002 C 
ATOM     52  CD2 LEU A   1      28.130  51.127  19.371  0.00  0.00    +0.000 C 
ATOM     53  CD1 LEU A   1      26.688  49.399  18.296  0.00  0.00    +0.000 C 
ENDBRANCH  50  51
ENDBRANCH  47  50
ENDBRANCH  43  47
ENDBRANCH  42  45
BRANCH  42  54
ATOM     54  CB  PHE A   2      28.054  43.770  21.792  0.00  0.00    +0.055 C 
BRANCH  54  55
ATOM     55  CG  PHE A   2      26.763  43.172  22.270  0.00  0.00    -0.020 A 
ATOM     56  CD2 PHE A   2      26.554  42.928  23.625  0.00  0.00    -0.004 A 
ATOM     57  CE2 PHE A   2      25.371  42.335  24.073  0.00  0.00    -0.000 A 
ATOM     58  CZ  PHE A   2      24.384  41.984  23.159  0.00  0.00    -0.000 A 
ATOM     59  CE1 PHE A   2      24.584  42.227  21.804  0.00  0.00    -0.000 A 
ATOM     60  CD1 PHE A   2      25.770  42.819  21.367  0.00  0.00    -0.004 A 
ENDBRANCH  54  55
ENDBRANCH  42  54
ENDBRANCH  38  42
ENDBRANCH  37  39
BRANCH  37  61
ATOM     61  CB  HIS A   3      32.954  44.595  23.605  0.00  0.00    +0.076 C 
BRANCH  61  62
ATOM     62  CG  HIS A   3      32.809  45.317  24.907  0.00  0.00    +0.082 A 
ATOM     63  ND1 HIS A   3      32.744  44.696  26.134  0.00  0.00    -0.227 NA
ATOM     64  CE1 HIS A   3      32.573  45.636  27.074  0.00  0.00    +0.199 A 
ATOM     65  NE2 HIS A   3      32.523  46.846  26.544  0.00  0.00    -0.221 NA
ATOM     66  CD2 HIS A   3      32.676  46.643  25.164  0.00  0.00    +0.115 A 
ENDBRANCH  61  62
ENDBRANCH  37  61
ENDBRANCH   1  37
TORSDOF 26
REMARK  Name = ../refined-set-2016/1hfs/1hfs_pocket.pdb
REMARK  269 active torsions:
REMARK  status: ('A' for Active; 'I' for Inactive)
REMARK    1  A    between atoms: _1  and  _3
REMARK    2  A    between atoms: _3  and  _4
REMARK    3  A    between atoms: _3  and  _6
REMARK    4  A    between atoms: _6  and  _7
REMARK    5  A    between atoms: _11  and  ZN_724
REMARK    6  A    between atoms: _12  and  _14
REMARK    7  A    between atoms: _14  and  _15
REMARK    8  A    between atoms: _14  and  _17
REMARK    9  A    between atoms: _17  and  _18
REMARK   10  A    between atoms: _18  and  _20
REMARK   11  A    between atoms: _20  and  ZN_724
REMARK   12  A    between atoms: _21  and  _23
REMARK   13  A    between atoms: _23  and  _24
REMARK   14  A    between atoms: _23  and  _26
REMARK   15  A    between atoms: _26  and  _27
REMARK   16  A    between atoms: _33  and  _35
REMARK   17  A    between atoms: _35  and  _36
REMARK   18  A    between atoms: _35  and  _38
REMARK   19  A    between atoms: _38  and  _39
REMARK   20  A    between atoms: _44  and  _45
REMARK   21  A    between atoms: _48  and  _49
REMARK   22  A    between atoms: _54  and  _56
REMARK   23  A    between atoms: _56  and  _57
REMARK   24  A    between atoms: _56  and  _59
REMARK   25  A    between atoms: _59  and  _60
REMARK   26  A    between atoms: _66  and  _68
REMARK   27  A    between atoms: _68  and  _69
REMARK   28  A    between atoms: _68  and  _71
REMARK   29  A    between atoms: _71  and  _72
REMARK   30  A    between atoms: _76  and  _77
REMARK   31  A    between atoms: _82  and  _84
REMARK   32  A    between atoms: _89  and  _92
REMARK   33  A    between atoms: _92  and  _93
REMARK   34  A    between atoms: _100  and  _103
REMARK   35  A    between atoms: _101  and  _106
REMARK   36  A    between atoms: _106  and  _108
REMARK   37  A    between atoms: _108  and  _109
REMARK   38  A    between atoms: _108  and  _111
REMARK   39  A    between atoms: _111  and  _112
REMARK   40  A    between atoms: _115  and  _117
REMARK   41  A    between atoms: _117  and  _118
REMARK   42  A    between atoms: _121  and  _123
REMARK   43  A    between atoms: _123  and  _124
REMARK   44  A    between atoms: _123  and  _126
REMARK   45  A    between atoms: _126  and  _127
REMARK   46  A    between atoms: _131  and  ZN_724
REMARK   47  A    between atoms: _132  and  _134
REMARK   48  A    between atoms: _134  and  _135
REMARK   49  A    between atoms: _138  and  _140
REMARK   50  A    between atoms: _140  and  _141
REMARK   51  A    between atoms: _140  and  _143
REMARK   52  A    between atoms: _143  and  _144
REMARK   53  A    between atoms: _149  and  _150
REMARK   54  A    between atoms: _152  and  _154
REMARK   55  A    between atoms: _154  and  _155
REMARK   56  A    between atoms: _158  and  _160
REMARK   57  A    between atoms: _160  and  _161
REMARK   58  A    between atoms: _160  and  _163
REMARK   59  A    between atoms: _163  and  _164
REMARK   60  A    between atoms: _167  and  _169
REMARK   61  A    between atoms: _169  and  _170
REMARK   62  A    between atoms: _172  and  _174
REMARK   63  A    between atoms: _174  and  _175
REMARK   64  A    between atoms: _174  and  _177
REMARK   65  A    between atoms: _177  and  _178
REMARK   66  A    between atoms: _181  and  _183
REMARK   67  A    between atoms: _183  and  _184
REMARK   68  A    between atoms: _183  and  _186
REMARK   69  A    between atoms: _186  and  _187
REMARK   70  A    between atoms: _188  and  ZN_724
REMARK   71  A    between atoms: _192  and  _194
REMARK   72  A    between atoms: _194  and  _195
REMARK   73  A    between atoms: _194  and  _197
REMARK   74  A    between atoms: _197  and  _198
REMARK   75  A    between atoms: _201  and  _203
REMARK   76  A    between atoms: _203  and  _204
REMARK   77  A    between atoms: _203  and  _206
REMARK   78  A    between atoms: _206  and  _207
REMARK   79  A    between atoms: _207  and  _208
REMARK   80  A    between atoms: _211  and  _213
REMARK   81  A    between atoms: _213  and  _214
REMARK   82  A    between atoms: _213  and  _216
REMARK   83  A    between atoms: _216  and  _217
REMARK   84  A    between atoms: _227  and  _229
REMARK   85  A    between atoms: _229  and  _230
REMARK   86  A    between atoms: _232  and  _234
REMARK   87  A    between atoms: _234  and  _235
REMARK   88  A    between atoms: _234  and  _237
REMARK   89  A    between atoms: _237  and  _238
REMARK   90  A    between atoms: _241  and  _243
REMARK   91  A    between atoms: _243  and  _244
REMARK   92  A    between atoms: _243  and  _246
REMARK   93  A    between atoms: _246  and  _247
REMARK   94  A    between atoms: _252  and  _254
REMARK   95  A    between atoms: _254  and  _255
REMARK   96  A    between atoms: _254  and  _257
REMARK   97  A    between atoms: _257  and  _258
REMARK   98  A    between atoms: _261  and  _263
REMARK   99  A    between atoms: _263  and  _264
REMARK  100  A    between atoms: _263  and  _266
REMARK  101  A    between atoms: _266  and  _267
REMARK  102  A    between atoms: _273  and  _275
REMARK  103  A    between atoms: _275  and  _276
REMARK  104  A    between atoms: _275  and  _278
REMARK  105  A    between atoms: _278  and  _279
REMARK  106  A    between atoms: _282  and  _284
REMARK  107  A    between atoms: _284  and  _285
REMARK  108  A    between atoms: _284  and  _287
REMARK  109  A    between atoms: _290  and  _292
REMARK  110  A    between atoms: _292  and  _293
REMARK  111  A    between atoms: _296  and  _298
REMARK  112  A    between atoms: _298  and  _299
REMARK  113  A    between atoms: _302  and  _304
REMARK  114  A    between atoms: _315  and  _318
REMARK  115  A    between atoms: _318  and  _319
REMARK  116  A    between atoms: _319  and  _320
REMARK  117  A    between atoms: _325  and  _328
REMARK  118  A    between atoms: _328  and  _329
REMARK  119  A    between atoms: _339  and  _340
REMARK  120  A    between atoms: _348  and  _350
REMARK  121  A    between atoms: _350  and  _351
REMARK  122  A    between atoms: _350  and  _353
REMARK  123  A    between atoms: _353  and  _354
REMARK  124  A    between atoms: _356  and  _358
REMARK  125  A    between atoms: _358  and  _359
REMARK  126  A    between atoms: _358  and  _361
REMARK  127  A    between atoms: _361  and  _362
REMARK  128  A    between atoms: _366  and  ZN_723
REMARK  129  A    between atoms: _367  and  _369
REMARK  130  A    between atoms: _369  and  _370
REMARK  131  A    between atoms: _369  and  _372
REMARK  132  A    between atoms: _372  and  _373
REMARK  133  A    between atoms: _375  and  _377
REMARK  134  A    between atoms: _377  and  _378
REMARK  135  A    between atoms: _377  and  _380
REMARK  136  A    between atoms: _380  and  _381
REMARK  137  A    between atoms: _386  and  _388
REMARK  138  A    between atoms: _388  and  _389
REMARK  139  A    between atoms: _388  and  _391
REMARK  140  A    between atoms: _391  and  _392
REMARK  141  A    between atoms: _395  and  _397
REMARK  142  A    between atoms: _397  and  _398
REMARK  143  A    between atoms: _397  and  _400
REMARK  144  A    between atoms: _400  and  _401
REMARK  145  A    between atoms: _401  and  _402
REMARK  146  A    between atoms: _405  and  _407
REMARK  147  A    between atoms: _407  and  _408
REMARK  148  A    between atoms: _411  and  _413
REMARK  149  A    between atoms: _413  and  _414
REMARK  150  A    between atoms: _413  and  _416
REMARK  151  A    between atoms: _416  and  _417
REMARK  152  A    between atoms: _420  and  _422
REMARK  153  A    between atoms: _422  and  _423
REMARK  154  A    between atoms: _422  and  _425
REMARK  155  A    between atoms: _425  and  _426
REMARK  156  A    between atoms: _426  and  _427
REMARK  157  A    between atoms: _429  and  _431
REMARK  158  A    between atoms: _431  and  _432
REMARK  159  A    between atoms: _431  and  _434
REMARK  160  A    between atoms: _434  and  _435
REMARK  161  A    between atoms: _440  and  _441
REMARK  162  A    between atoms: _444  and  _445
REMARK  163  A    between atoms: _450  and  _452
REMARK  164  A    between atoms: _452  and  _453
REMARK  165  A    between atoms: _452  and  _455
REMARK  166  A    between atoms: _455  and  _456
REMARK  167  A    between atoms: _459  and  _461
REMARK  168  A    between atoms: _461  and  _462
REMARK  169  A    between atoms: _461  and  _464
REMARK  170  A    between atoms: _464  and  _465
REMARK  171  A    between atoms: _470  and  _471
REMARK  172  A    between atoms: _473  and  _475
REMARK  173  A    between atoms: _475  and  _476
REMARK  174  A    between atoms: _475  and  _478
REMARK  175  A    between atoms: _478  and  _479
REMARK  176  A    between atoms: _484  and  _486
REMARK  177  A    between atoms: _486  and  _487
REMARK  178  A    between atoms: _486  and  _489
REMARK  179  A    between atoms: _489  and  _490
REMARK  180  A    between atoms: _492  and  _494
REMARK  181  A    between atoms: _494  and  _495
REMARK  182  A    between atoms: _494  and  _497
REMARK  183  A    between atoms: _497  and  _498
REMARK  184  A    between atoms: _501  and  _503
REMARK  185  A    between atoms: _503  and  _504
REMARK  186  A    between atoms: _503  and  _506
REMARK  187  A    between atoms: _506  and  _507
REMARK  188  A    between atoms: _510  and  _512
REMARK  189  A    between atoms: _512  and  _513
REMARK  190  A    between atoms: _512  and  _515
REMARK  191  A    between atoms: _515  and  _516
REMARK  192  A    between atoms: _519  and  _521
REMARK  193  A    between atoms: _521  and  _522
REMARK  194  A    between atoms: _521  and  _524
REMARK  195  A    between atoms: _524  and  _525
REMARK  196  A    between atoms: _528  and  _530
REMARK  197  A    between atoms: _530  and  _531
REMARK  198  A    between atoms: _530  and  _533
REMARK  199  A    between atoms: _533  and  _534
REMARK  200  A    between atoms: _534  and  _535
REMARK  201  A    between atoms: _535  and  _536
REMARK  202  A    between atoms: _545  and  _547
REMARK  203  A    between atoms: _547  and  _548
REMARK  204  A    between atoms: _547  and  _550
REMARK  205  A    between atoms: _550  and  _551
REMARK  206  A    between atoms: _557  and  _559
REMARK  207  A    between atoms: _559  and  _560
REMARK  208  A    between atoms: _559  and  _562
REMARK  209  A    between atoms: _562  and  _563
REMARK  210  A    between atoms: _563  and  _564
REMARK  211  A    between atoms: _564  and  _565
REMARK  212  A    between atoms: _574  and  _576
REMARK  213  A    between atoms: _576  and  _577
REMARK  214  A    between atoms: _576  and  _579
REMARK  215  A    between atoms: _579  and  _580
REMARK  216  A    between atoms: _582  and  _584
REMARK  217  A    between atoms: _584  and  _585
REMARK  218  A    between atoms: _584  and  _587
REMARK  219  A    between atoms: _587  and  _588
REMARK  220  A    between atoms: _591  and  _593
REMARK  221  A    between atoms: _593  and  _594
REMARK  222  A    between atoms: _593  and  _596
REMARK  223  A    between atoms: _596  and  _597
REMARK  224  A    between atoms: _601  and  _602
REMARK  225  A    between atoms: _607  and  _609
REMARK  226  A    between atoms: _609  and  _610
REMARK  227  A    between atoms: _609  and  _612
REMARK  228  A    between atoms: _612  and  _613
REMARK  229  A    between atoms: _618  and  _620
REMARK  230  A    between atoms: _620  and  _621
REMARK  231  A    between atoms: _620  and  _623
REMARK  232  A    between atoms: _623  and  _624
REMARK  233  A    between atoms: _627  and  _629
REMARK  234  A    between atoms: _629  and  _630
REMARK  235  A    between atoms: _629  and  _632
REMARK  236  A    between atoms: _632  and  _633
REMARK  237  A    between atoms: _639  and  _641
REMARK  238  A    between atoms: _641  and  _642
REMARK  239  A    between atoms: _641  and  _644
REMARK  240  A    between atoms: _644  and  _645
REMARK  241  A    between atoms: _650  and  _652
REMARK  242  A    between atoms: _652  and  _653
REMARK  243  A    between atoms: _652  and  _655
REMARK  244  A    between atoms: _655  and  _656
REMARK  245  A    between atoms: _658  and  _660
REMARK  246  A    between atoms: _660  and  _661
REMARK  247  A    between atoms: _664  and  _666
REMARK  248  A    between atoms: _666  and  _667
REMARK  249  A    between atoms: _666  and  _669
REMARK  250  A    between atoms: _669  and  _670
REMARK  251  A    between atoms: _675  and  _677
REMARK  252  A    between atoms: _677  and  _678
REMARK  253  A    between atoms: _677  and  _680
REMARK  254  A    between atoms: _680  and  _681
REMARK  255  A    between atoms: _684  and  _686
REMARK  256  A    between atoms: _686  and  _687
REMARK  257  A    between atoms: _686  and  _689
REMARK  258  A    between atoms: _689  and  _690
REMARK  259  A    between atoms: _690  and  _691
REMARK  260  A    between atoms: _693  and  _695
REMARK  261  A    between atoms: _695  and  _696
REMARK  262  A    between atoms: _695  and  _698
REMARK  263  A    between atoms: _698  and  _699
REMARK  264  A    between atoms: _704  and  _705
REMARK  265  A    between atoms: _708  and  _709
REMARK  266  A    between atoms: _714  and  _716
REMARK  267  A    between atoms: _716  and  _717
REMARK  268  A    between atoms: _716  and  _719
REMARK  269  A    between atoms: _719  and  _720
REMARK                            x       y       z     vdW  Elec       q    Type
REMARK                         _______ _______ _______ _____ _____    ______ ____
ROOT
ATOM      1  CA  TYR A   2      37.011  47.553  22.865  0.00  0.00    +0.153 C 
ENDROOT
BRANCH   1   2
ATOM      2  C   TYR A   2      36.704  47.473  24.378  0.00  0.00    +0.244 C 
ATOM      3  O   TYR A   2      36.420  48.493  24.999  0.00  0.00    -0.273 OA
ATOM      4  N   PRO A   3      36.755  46.269  24.987  0.00  0.00    -0.272 N 
ATOM      5  CA  PRO A   3      36.462  46.084  26.419  0.00  0.00    +0.152 C 
ATOM      6  CB  PRO A   3      36.563  44.563  26.599  0.00  0.00    +0.031 C 
ATOM      7  CG  PRO A   3      36.287  44.022  25.257  0.00  0.00    +0.024 C 
ATOM      8  CD  PRO A   3      37.024  44.968  24.350  0.00  0.00    +0.094 C 
BRANCH   5   9
ATOM      9  C   PRO A   3      37.350  46.776  27.451  0.00  0.00    +0.241 C 
ATOM     10  O   PRO A   3      36.886  47.090  28.553  0.00  0.00    -0.273 OA
ATOM     11  N   LEU A   4      38.626  46.965  27.121  0.00  0.00    -0.298 N 
ATOM     12  H   LEU A   4      38.955  46.686  26.175  0.00  0.00    +0.150 HD
BRANCH  11  13
ATOM     13  CA  LEU A   4      39.570  47.556  28.062  0.00  0.00    +0.137 C 
BRANCH  13  14
ATOM     14  C   LEU A   4      39.937  48.999  27.749  0.00  0.00    +0.227 C 
ATOM     15  O   LEU A   4      40.258  49.337  26.611  0.00  0.00    -0.286 OA
ENDBRANCH  13  14
BRANCH  13  16
ATOM     16  CB  LEU A   4      40.848  46.712  28.126  0.00  0.00    +0.028 C 
BRANCH  16  17
ATOM     17  CG  LEU A   4      40.705  45.195  28.294  0.00  0.00    +0.002 C 
ATOM     18  CD2 LEU A   4      39.958  44.858  29.566  0.00  0.00    +0.000 C 
ATOM     19  CD1 LEU A   4      42.077  44.554  28.310  0.00  0.00    +0.000 C 
ENDBRANCH  16  17
ENDBRANCH  13  16
ENDBRANCH  11  13
ENDBRANCH   5   9
ENDBRANCH   1   2
BRANCH   1  22
ATOM     20  C   MET A   1      34.827  48.458  22.250  0.00  0.00    +0.238 C 
ATOM     21  O   MET A   1      34.271  47.390  22.504  0.00  0.00    -0.274 OA
ATOM     22  N   TYR A   2      36.142  48.625  22.372  0.00  0.00    -0.297 N 
ATOM     23  H   TYR A   2      36.563  49.539  22.111  0.00  0.00    +0.150 HD
BRANCH  20  24
ATOM     24  CA  MET A   1      34.005  49.666  21.788  0.00  0.00    +0.146 C 
BRANCH  24  25
ATOM     25  N   MET A   1      34.705  50.709  21.054  0.00  0.00    -0.238 NA
ATOM     26  H   MET A   1      34.654  50.720  20.015  0.00  0.00    +0.142 HD
ENDBRANCH  24  25
BRANCH  24  27
ATOM     27  CB  MET A   1      32.747  49.223  21.032  0.00  0.00    +0.038 C 
BRANCH  27  28
ATOM     28  CG  MET A   1      31.718  50.342  20.827  0.00  0.00    +0.060 C 
BRANCH  28  29
ATOM     29  SD  MET A   1      31.289  51.236  22.341  0.00  0.00    -0.139 S 
ATOM     30  CE  MET A   1      30.384  49.981  23.231  0.00  0.00    +0.069 C 
ENDBRANCH  28  29
ENDBRANCH  27  28
ENDBRANCH  24  27
ENDBRANCH  20  24
ENDBRANCH   1  22
BRANCH   1  31
ATOM     31  CB  TYR A   2      38.485  47.906  22.613  0.00  0.00    +0.055 C 
BRANCH  31  32
ATOM     32  CG  TYR A   2      39.438  46.771  22.907  0.00  0.00    -0.020 A 
ATOM     33  CD2 TYR A   2      40.357  46.859  23.950  0.00  0.00    -0.001 A 
ATOM     34  CE2 TYR A   2      41.199  45.794  24.253  0.00  0.00    +0.036 A 
ATOM     35  CZ  TYR A   2      41.126  44.627  23.505  0.00  0.00    +0.134 A 
ATOM     36  CE1 TYR A   2      40.225  44.519  22.462  0.00  0.00    +0.036 A 
ATOM     37  CD1 TYR A   2      39.390  45.588  22.167  0.00  0.00    -0.001 A 
BRANCH  35  38
ATOM     38  OH  TYR A   2      41.944  43.565  23.807  0.00  0.00    -0.506 OA
ATOM     39  HH  TYR A   2      41.762  42.821  23.180  0.00  0.00    +0.292 HD
ENDBRANCH  35  38
ENDBRANCH  31  32
ENDBRANCH   1  31
TORSDOF 15
REMARK  Name = ../refined-set-2016/1hfs/1hfs_pocket.pdb
REMARK  269 active torsions:
REMARK  status: ('A' for Active; 'I' for Inactive)
REMARK    1  A    between atoms: _1  and  _3
REMARK    2  A    between atoms: _3  and  _4
REMARK    3  A    between atoms: _3  and  _6
REMARK    4  A    between atoms: _6  and  _7
REMARK    5  A    between atoms: _11  and  ZN_724
REMARK    6  A    between atoms: _12  and  _14
REMARK    7  A    between atoms: _14  and  _15
REMARK    8  A    between atoms: _14  and  _17
REMARK    9  A    between atoms: _17  and  _18
REMARK   10  A    between atoms: _18  and  _20
REMARK   11  A    between atoms: _20  and  ZN_724
REMARK   12  A    between atoms: _21  and  _23
REMARK   13  A    between atoms: _23  and  _24
REMARK   14  A    between atoms: _23  and  _26
REMARK   15  A    between atoms: _26  and  _27
REMARK   16  A    between atoms: _33  and  _35
REMARK   17  A    between atoms: _35  and  _36
REMARK   18  A    between atoms: _35  and  _38
REMARK   19  A    between atoms: _38  and  _39
REMARK   20  A    between atoms: _44  and  _45
REMARK   21  A    between atoms: _48  and  _49
REMARK   22  A    between atoms: _54  and  _56
REMARK   23  A    between atoms: _56  and  _57
REMARK   24  A    between atoms: _56  and  _59
REMARK   25  A    between atoms: _59  and  _60
REMARK   26  A    between atoms: _66  and  _68
REMARK   27  A    between atoms: _68  and  _69
REMARK   28  A    between atoms: _68  and  _71
REMARK   29  A    between atoms: _71  and  _72
REMARK   30  A    between atoms: _76  and  _77
REMARK   31  A    between atoms: _82  and  _84
REMARK   32  A    between atoms: _89  and  _92
REMARK   33  A    between atoms: _92  and  _93
REMARK   34  A    between atoms: _100  and  _103
REMARK   35  A    between atoms: _101  and  _106
REMARK   36  A    between atoms: _106  and  _108
REMARK   37  A    between atoms: _108  and  _109
REMARK   38  A    between atoms: _108  and  _111
REMARK   39  A    between atoms: _111  and  _112
REMARK   40  A    between atoms: _115  and  _117
REMARK   41  A    between atoms: _117  and  _118
REMARK   42  A    between atoms: _121  and  _123
REMARK   43  A    between atoms: _123  and  _124
REMARK   44  A    between atoms: _123  and  _126
REMARK   45  A    between atoms: _126  and  _127
REMARK   46  A    between atoms: _131  and  ZN_724
REMARK   47  A    between atoms: _132  and  _134
REMARK   48  A    between atoms: _134  and  _135
REMARK   49  A    between atoms: _138  and  _140
REMARK   50  A    between atoms: _140  and  _141
REMARK   51  A    between atoms: _140  and  _143
REMARK   52  A    between atoms: _143  and  _144
REMARK   53  A    between atoms: _149  and  _150
REMARK   54  A    between atoms: _152  and  _154
REMARK   55  A    between atoms: _154  and  _155
REMARK   56  A    between atoms: _158  and  _160
REMARK   57  A    between atoms: _160  and  _161
REMARK   58  A    between atoms: _160  and  _163
REMARK   59  A    between atoms: _163  and  _164
REMARK   60  A    between atoms: _167  and  _169
REMARK   61  A    between atoms: _169  and  _170
REMARK   62  A    between atoms: _172  and  _174
REMARK   63  A    between atoms: _174  and  _175
REMARK   64  A    between atoms: _174  and  _177
REMARK   65  A    between atoms: _177  and  _178
REMARK   66  A    between atoms: _181  and  _183
REMARK   67  A    between atoms: _183  and  _184
REMARK   68  A    between atoms: _183  and  _186
REMARK   69  A    between atoms: _186  and  _187
REMARK   70  A    between atoms: _188  and  ZN_724
REMARK   71  A    between atoms: _192  and  _194
REMARK   72  A    between atoms: _194  and  _195
REMARK   73  A    between atoms: _194  and  _197
REMARK   74  A    between atoms: _197  and  _198
REMARK   75  A    between atoms: _201  and  _203
REMARK   76  A    between atoms: _203  and  _204
REMARK   77  A    between atoms: _203  and  _206
REMARK   78  A    between atoms: _206  and  _207
REMARK   79  A    between atoms: _207  and  _208
REMARK   80  A    between atoms: _211  and  _213
REMARK   81  A    between atoms: _213  and  _214
REMARK   82  A    between atoms: _213  and  _216
REMARK   83  A    between atoms: _216  and  _217
REMARK   84  A    between atoms: _227  and  _229
REMARK   85  A    between atoms: _229  and  _230
REMARK   86  A    between atoms: _232  and  _234
REMARK   87  A    between atoms: _234  and  _235
REMARK   88  A    between atoms: _234  and  _237
REMARK   89  A    between atoms: _237  and  _238
REMARK   90  A    between atoms: _241  and  _243
REMARK   91  A    between atoms: _243  and  _244
REMARK   92  A    between atoms: _243  and  _246
REMARK   93  A    between atoms: _246  and  _247
REMARK   94  A    between atoms: _252  and  _254
REMARK   95  A    between atoms: _254  and  _255
REMARK   96  A    between atoms: _254  and  _257
REMARK   97  A    between atoms: _257  and  _258
REMARK   98  A    between atoms: _261  and  _263
REMARK   99  A    between atoms: _263  and  _264
REMARK  100  A    between atoms: _263  and  _266
REMARK  101  A    between atoms: _266  and  _267
REMARK  102  A    between atoms: _273  and  _275
REMARK  103  A    between atoms: _275  and  _276
REMARK  104  A    between atoms: _275  and  _278
REMARK  105  A    between atoms: _278  and  _279
REMARK  106  A    between atoms: _282  and  _284
REMARK  107  A    between atoms: _284  and  _285
REMARK  108  A    between atoms: _284  and  _287
REMARK  109  A    between atoms: _290  and  _292
REMARK  110  A    between atoms: _292  and  _293
REMARK  111  A    between atoms: _296  and  _298
REMARK  112  A    between atoms: _298  and  _299
REMARK  113  A    between atoms: _302  and  _304
REMARK  114  A    between atoms: _315  and  _318
REMARK  115  A    between atoms: _318  and  _319
REMARK  116  A    between atoms: _319  and  _320
REMARK  117  A    between atoms: _325  and  _328
REMARK  118  A    between atoms: _328  and  _329
REMARK  119  A    between atoms: _339  and  _340
REMARK  120  A    between atoms: _348  and  _350
REMARK  121  A    between atoms: _350  and  _351
REMARK  122  A    between atoms: _350  and  _353
REMARK  123  A    between atoms: _353  and  _354
REMARK  124  A    between atoms: _356  and  _358
REMARK  125  A    between atoms: _358  and  _359
REMARK  126  A    between atoms: _358  and  _361
REMARK  127  A    between atoms: _361  and  _362
REMARK  128  A    between atoms: _366  and  ZN_723
REMARK  129  A    between atoms: _367  and  _369
REMARK  130  A    between atoms: _369  and  _370
REMARK  131  A    between atoms: _369  and  _372
REMARK  132  A    between atoms: _372  and  _373
REMARK  133  A    between atoms: _375  and  _377
REMARK  134  A    between atoms: _377  and  _378
REMARK  135  A    between atoms: _377  and  _380
REMARK  136  A    between atoms: _380  and  _381
REMARK  137  A    between atoms: _386  and  _388
REMARK  138  A    between atoms: _388  and  _389
REMARK  139  A    between atoms: _388  and  _391
REMARK  140  A    between atoms: _391  and  _392
REMARK  141  A    between atoms: _395  and  _397
REMARK  142  A    between atoms: _397  and  _398
REMARK  143  A    between atoms: _397  and  _400
REMARK  144  A    between atoms: _400  and  _401
REMARK  145  A    between atoms: _401  and  _402
REMARK  146  A    between atoms: _405  and  _407
REMARK  147  A    between atoms: _407  and  _408
REMARK  148  A    between atoms: _411  and  _413
REMARK  149  A    between atoms: _413  and  _414
REMARK  150  A    between atoms: _413  and  _416
REMARK  151  A    between atoms: _416  and  _417
REMARK  152  A    between atoms: _420  and  _422
REMARK  153  A    between atoms: _422  and  _423
REMARK  154  A    between atoms: _422  and  _425
REMARK  155  A    between atoms: _425  and  _426
REMARK  156  A    between atoms: _426  and  _427
REMARK  157  A    between atoms: _429  and  _431
REMARK  158  A    between atoms: _431  and  _432
REMARK  159  A    between atoms: _431  and  _434
REMARK  160  A    between atoms: _434  and  _435
REMARK  161  A    between atoms: _440  and  _441
REMARK  162  A    between atoms: _444  and  _445
REMARK  163  A    between atoms: _450  and  _452
REMARK  164  A    between atoms: _452  and  _453
REMARK  165  A    between atoms: _452  and  _455
REMARK  166  A    between atoms: _455  and  _456
REMARK  167  A    between atoms: _459  and  _461
REMARK  168  A    between atoms: _461  and  _462
REMARK  169  A    between atoms: _461  and  _464
REMARK  170  A    between atoms: _464  and  _465
REMARK  171  A    between atoms: _470  and  _471
REMARK  172  A    between atoms: _473  and  _475
REMARK  173  A    between atoms: _475  and  _476
REMARK  174  A    between atoms: _475  and  _478
REMARK  175  A    between atoms: _478  and  _479
REMARK  176  A    between atoms: _484  and  _486
REMARK  177  A    between atoms: _486  and  _487
REMARK  178  A    between atoms: _486  and  _489
REMARK  179  A    between atoms: _489  and  _490
REMARK  180  A    between atoms: _492  and  _494
REMARK  181  A    between atoms: _494  and  _495
REMARK  182  A    between atoms: _494  and  _497
REMARK  183  A    between atoms: _497  and  _498
REMARK  184  A    between atoms: _501  and  _503
REMARK  185  A    between atoms: _503  and  _504
REMARK  186  A    between atoms: _503  and  _506
REMARK  187  A    between atoms: _506  and  _507
REMARK  188  A    between atoms: _510  and  _512
REMARK  189  A    between atoms: _512  and  _513
REMARK  190  A    between atoms: _512  and  _515
REMARK  191  A    between atoms: _515  and  _516
REMARK  192  A    between atoms: _519  and  _521
REMARK  193  A    between atoms: _521  and  _522
REMARK  194  A    between atoms: _521  and  _524
REMARK  195  A    between atoms: _524  and  _525
REMARK  196  A    between atoms: _528  and  _530
REMARK  197  A    between atoms: _530  and  _531
REMARK  198  A    between atoms: _530  and  _533
REMARK  199  A    between atoms: _533  and  _534
REMARK  200  A    between atoms: _534  and  _535
REMARK  201  A    between atoms: _535  and  _536
REMARK  202  A    between atoms: _545  and  _547
REMARK  203  A    between atoms: _547  and  _548
REMARK  204  A    between atoms: _547  and  _550
REMARK  205  A    between atoms: _550  and  _551
REMARK  206  A    between atoms: _557  and  _559
REMARK  207  A    between atoms: _559  and  _560
REMARK  208  A    between atoms: _559  and  _562
REMARK  209  A    between atoms: _562  and  _563
REMARK  210  A    between atoms: _563  and  _564
REMARK  211  A    between atoms: _564  and  _565
REMARK  212  A    between atoms: _574  and  _576
REMARK  213  A    between atoms: _576  and  _577
REMARK  214  A    between atoms: _576  and  _579
REMARK  215  A    between atoms: _579  and  _580
REMARK  216  A    between atoms: _582  and  _584
REMARK  217  A    between atoms: _584  and  _585
REMARK  218  A    between atoms: _584  and  _587
REMARK  219  A    between atoms: _587  and  _588
REMARK  220  A    between atoms: _591  and  _593
REMARK  221  A    between atoms: _593  and  _594
REMARK  222  A    between atoms: _593  and  _596
REMARK  223  A    between atoms: _596  and  _597
REMARK  224  A    between atoms: _601  and  _602
REMARK  225  A    between atoms: _607  and  _609
REMARK  226  A    between atoms: _609  and  _610
REMARK  227  A    between atoms: _609  and  _612
REMARK  228  A    between atoms: _612  and  _613
REMARK  229  A    between atoms: _618  and  _620
REMARK  230  A    between atoms: _620  and  _621
REMARK  231  A    between atoms: _620  and  _623
REMARK  232  A    between atoms: _623  and  _624
REMARK  233  A    between atoms: _627  and  _629
REMARK  234  A    between atoms: _629  and  _630
REMARK  235  A    between atoms: _629  and  _632
REMARK  236  A    between atoms: _632  and  _633
REMARK  237  A    between atoms: _639  and  _641
REMARK  238  A    between atoms: _641  and  _642
REMARK  239  A    between atoms: _641  and  _644
REMARK  240  A    between atoms: _644  and  _645
REMARK  241  A    between atoms: _650  and  _652
REMARK  242  A    between atoms: _652  and  _653
REMARK  243  A    between atoms: _652  and  _655
REMARK  244  A    between atoms: _655  and  _656
REMARK  245  A    between atoms: _658  and  _660
REMARK  246  A    between atoms: _660  and  _661
REMARK  247  A    between atoms: _664  and  _666
REMARK  248  A    between atoms: _666  and  _667
REMARK  249  A    between atoms: _666  and  _669
REMARK  250  A    between atoms: _669  and  _670
REMARK  251  A    between atoms: _675  and  _677
REMARK  252  A    between atoms: _677  and  _678
REMARK  253  A    between atoms: _677  and  _680
REMARK  254  A    between atoms: _680  and  _681
REMARK  255  A    between atoms: _684  and  _686
REMARK  256  A    between atoms: _686  and  _687
REMARK  257  A    between atoms: _686  and  _689
REMARK  258  A    between atoms: _689  and  _690
REMARK  259  A    between atoms: _690  and  _691
REMARK  260  A    between atoms: _693  and  _695
REMARK  261  A    between atoms: _695  and  _696
REMARK  262  A    between atoms: _695  and  _698
REMARK  263  A    between atoms: _698  and  _699
REMARK  264  A    between atoms: _704  and  _705
REMARK  265  A    between atoms: _708  and  _709
REMARK  266  A    between atoms: _714  and  _716
REMARK  267  A    between atoms: _716  and  _717
REMARK  268  A    between atoms: _716  and  _719
REMARK  269  A    between atoms: _719  and  _720
REMARK                            x       y       z     vdW  Elec       q    Type
REMARK                         _______ _______ _______ _____ _____    ______ ____
ROOT
ATOM      1  O   HOH     1      28.672  36.653  24.656  0.00  0.00    +0.000 OA
ENDROOT
TORSDOF 0
REMARK  Name = ../refined-set-2016/1hfs/1hfs_pocket.pdb
REMARK  269 active torsions:
REMARK  status: ('A' for Active; 'I' for Inactive)
REMARK    1  A    between atoms: _1  and  _3
REMARK    2  A    between atoms: _3  and  _4
REMARK    3  A    between atoms: _3  and  _6
REMARK    4  A    between atoms: _6  and  _7
REMARK    5  A    between atoms: _11  and  ZN_724
REMARK    6  A    between atoms: _12  and  _14
REMARK    7  A    between atoms: _14  and  _15
REMARK    8  A    between atoms: _14  and  _17
REMARK    9  A    between atoms: _17  and  _18
REMARK   10  A    between atoms: _18  and  _20
REMARK   11  A    between atoms: _20  and  ZN_724
REMARK   12  A    between atoms: _21  and  _23
REMARK   13  A    between atoms: _23  and  _24
REMARK   14  A    between atoms: _23  and  _26
REMARK   15  A    between atoms: _26  and  _27
REMARK   16  A    between atoms: _33  and  _35
REMARK   17  A    between atoms: _35  and  _36
REMARK   18  A    between atoms: _35  and  _38
REMARK   19  A    between atoms: _38  and  _39
REMARK   20  A    between atoms: _44  and  _45
REMARK   21  A    between atoms: _48  and  _49
REMARK   22  A    between atoms: _54  and  _56
REMARK   23  A    between atoms: _56  and  _57
REMARK   24  A    between atoms: _56  and  _59
REMARK   25  A    between atoms: _59  and  _60
REMARK   26  A    between atoms: _66  and  _68
REMARK   27  A    between atoms: _68  and  _69
REMARK   28  A    between atoms: _68  and  _71
REMARK   29  A    between atoms: _71  and  _72
REMARK   30  A    between atoms: _76  and  _77
REMARK   31  A    between atoms: _82  and  _84
REMARK   32  A    between atoms: _89  and  _92
REMARK   33  A    between atoms: _92  and  _93
REMARK   34  A    between atoms: _100  and  _103
REMARK   35  A    between atoms: _101  and  _106
REMARK   36  A    between atoms: _106  and  _108
REMARK   37  A    between atoms: _108  and  _109
REMARK   38  A    between atoms: _108  and  _111
REMARK   39  A    between atoms: _111  and  _112
REMARK   40  A    between atoms: _115  and  _117
REMARK   41  A    between atoms: _117  and  _118
REMARK   42  A    between atoms: _121  and  _123
REMARK   43  A    between atoms: _123  and  _124
REMARK   44  A    between atoms: _123  and  _126
REMARK   45  A    between atoms: _126  and  _127
REMARK   46  A    between atoms: _131  and  ZN_724
REMARK   47  A    between atoms: _132  and  _134
REMARK   48  A    between atoms: _134  and  _135
REMARK   49  A    between atoms: _138  and  _140
REMARK   50  A    between atoms: _140  and  _141
REMARK   51  A    between atoms: _140  and  _143
REMARK   52  A    between atoms: _143  and  _144
REMARK   53  A    between atoms: _149  and  _150
REMARK   54  A    between atoms: _152  and  _154
REMARK   55  A    between atoms: _154  and  _155
REMARK   56  A    between atoms: _158  and  _160
REMARK   57  A    between atoms: _160  and  _161
REMARK   58  A    between atoms: _160  and  _163
REMARK   59  A    between atoms: _163  and  _164
REMARK   60  A    between atoms: _167  and  _169
REMARK   61  A    between atoms: _169  and  _170
REMARK   62  A    between atoms: _172  and  _174
REMARK   63  A    between atoms: _174  and  _175
REMARK   64  A    between atoms: _174  and  _177
REMARK   65  A    between atoms: _177  and  _178
REMARK   66  A    between atoms: _181  and  _183
REMARK   67  A    between atoms: _183  and  _184
REMARK   68  A    between atoms: _183  and  _186
REMARK   69  A    between atoms: _186  and  _187
REMARK   70  A    between atoms: _188  and  ZN_724
REMARK   71  A    between atoms: _192  and  _194
REMARK   72  A    between atoms: _194  and  _195
REMARK   73  A    between atoms: _194  and  _197
REMARK   74  A    between atoms: _197  and  _198
REMARK   75  A    between atoms: _201  and  _203
REMARK   76  A    between atoms: _203  and  _204
REMARK   77  A    between atoms: _203  and  _206
REMARK   78  A    between atoms: _206  and  _207
REMARK   79  A    between atoms: _207  and  _208
REMARK   80  A    between atoms: _211  and  _213
REMARK   81  A    between atoms: _213  and  _214
REMARK   82  A    between atoms: _213  and  _216
REMARK   83  A    between atoms: _216  and  _217
REMARK   84  A    between atoms: _227  and  _229
REMARK   85  A    between atoms: _229  and  _230
REMARK   86  A    between atoms: _232  and  _234
REMARK   87  A    between atoms: _234  and  _235
REMARK   88  A    between atoms: _234  and  _237
REMARK   89  A    between atoms: _237  and  _238
REMARK   90  A    between atoms: _241  and  _243
REMARK   91  A    between atoms: _243  and  _244
REMARK   92  A    between atoms: _243  and  _246
REMARK   93  A    between atoms: _246  and  _247
REMARK   94  A    between atoms: _252  and  _254
REMARK   95  A    between atoms: _254  and  _255
REMARK   96  A    between atoms: _254  and  _257
REMARK   97  A    between atoms: _257  and  _258
REMARK   98  A    between atoms: _261  and  _263
REMARK   99  A    between atoms: _263  and  _264
REMARK  100  A    between atoms: _263  and  _266
REMARK  101  A    between atoms: _266  and  _267
REMARK  102  A    between atoms: _273  and  _275
REMARK  103  A    between atoms: _275  and  _276
REMARK  104  A    between atoms: _275  and  _278
REMARK  105  A    between atoms: _278  and  _279
REMARK  106  A    between atoms: _282  and  _284
REMARK  107  A    between atoms: _284  and  _285
REMARK  108  A    between atoms: _284  and  _287
REMARK  109  A    between atoms: _290  and  _292
REMARK  110  A    between atoms: _292  and  _293
REMARK  111  A    between atoms: _296  and  _298
REMARK  112  A    between atoms: _298  and  _299
REMARK  113  A    between atoms: _302  and  _304
REMARK  114  A    between atoms: _315  and  _318
REMARK  115  A    between atoms: _318  and  _319
REMARK  116  A    between atoms: _319  and  _320
REMARK  117  A    between atoms: _325  and  _328
REMARK  118  A    between atoms: _328  and  _329
REMARK  119  A    between atoms: _339  and  _340
REMARK  120  A    between atoms: _348  and  _350
REMARK  121  A    between atoms: _350  and  _351
REMARK  122  A    between atoms: _350  and  _353
REMARK  123  A    between atoms: _353  and  _354
REMARK  124  A    between atoms: _356  and  _358
REMARK  125  A    between atoms: _358  and  _359
REMARK  126  A    between atoms: _358  and  _361
REMARK  127  A    between atoms: _361  and  _362
REMARK  128  A    between atoms: _366  and  ZN_723
REMARK  129  A    between atoms: _367  and  _369
REMARK  130  A    between atoms: _369  and  _370
REMARK  131  A    between atoms: _369  and  _372
REMARK  132  A    between atoms: _372  and  _373
REMARK  133  A    between atoms: _375  and  _377
REMARK  134  A    between atoms: _377  and  _378
REMARK  135  A    between atoms: _377  and  _380
REMARK  136  A    between atoms: _380  and  _381
REMARK  137  A    between atoms: _386  and  _388
REMARK  138  A    between atoms: _388  and  _389
REMARK  139  A    between atoms: _388  and  _391
REMARK  140  A    between atoms: _391  and  _392
REMARK  141  A    between atoms: _395  and  _397
REMARK  142  A    between atoms: _397  and  _398
REMARK  143  A    between atoms: _397  and  _400
REMARK  144  A    between atoms: _400  and  _401
REMARK  145  A    between atoms: _401  and  _402
REMARK  146  A    between atoms: _405  and  _407
REMARK  147  A    between atoms: _407  and  _408
REMARK  148  A    between atoms: _411  and  _413
REMARK  149  A    between atoms: _413  and  _414
REMARK  150  A    between atoms: _413  and  _416
REMARK  151  A    between atoms: _416  and  _417
REMARK  152  A    between atoms: _420  and  _422
REMARK  153  A    between atoms: _422  and  _423
REMARK  154  A    between atoms: _422  and  _425
REMARK  155  A    between atoms: _425  and  _426
REMARK  156  A    between atoms: _426  and  _427
REMARK  157  A    between atoms: _429  and  _431
REMARK  158  A    between atoms: _431  and  _432
REMARK  159  A    between atoms: _431  and  _434
REMARK  160  A    between atoms: _434  and  _435
REMARK  161  A    between atoms: _440  and  _441
REMARK  162  A    between atoms: _444  and  _445
REMARK  163  A    between atoms: _450  and  _452
REMARK  164  A    between atoms: _452  and  _453
REMARK  165  A    between atoms: _452  and  _455
REMARK  166  A    between atoms: _455  and  _456
REMARK  167  A    between atoms: _459  and  _461
REMARK  168  A    between atoms: _461  and  _462
REMARK  169  A    between atoms: _461  and  _464
REMARK  170  A    between atoms: _464  and  _465
REMARK  171  A    between atoms: _470  and  _471
REMARK  172  A    between atoms: _473  and  _475
REMARK  173  A    between atoms: _475  and  _476
REMARK  174  A    between atoms: _475  and  _478
REMARK  175  A    between atoms: _478  and  _479
REMARK  176  A    between atoms: _484  and  _486
REMARK  177  A    between atoms: _486  and  _487
REMARK  178  A    between atoms: _486  and  _489
REMARK  179  A    between atoms: _489  and  _490
REMARK  180  A    between atoms: _492  and  _494
REMARK  181  A    between atoms: _494  and  _495
REMARK  182  A    between atoms: _494  and  _497
REMARK  183  A    between atoms: _497  and  _498
REMARK  184  A    between atoms: _501  and  _503
REMARK  185  A    between atoms: _503  and  _504
REMARK  186  A    between atoms: _503  and  _506
REMARK  187  A    between atoms: _506  and  _507
REMARK  188  A    between atoms: _510  and  _512
REMARK  189  A    between atoms: _512  and  _513
REMARK  190  A    between atoms: _512  and  _515
REMARK  191  A    between atoms: _515  and  _516
REMARK  192  A    between atoms: _519  and  _521
REMARK  193  A    between atoms: _521  and  _522
REMARK  194  A    between atoms: _521  and  _524
REMARK  195  A    between atoms: _524  and  _525
REMARK  196  A    between atoms: _528  and  _530
REMARK  197  A    between atoms: _530  and  _531
REMARK  198  A    between atoms: _530  and  _533
REMARK  199  A    between atoms: _533  and  _534
REMARK  200  A    between atoms: _534  and  _535
REMARK  201  A    between atoms: _535  and  _536
REMARK  202  A    between atoms: _545  and  _547
REMARK  203  A    between atoms: _547  and  _548
REMARK  204  A    between atoms: _547  and  _550
REMARK  205  A    between atoms: _550  and  _551
REMARK  206  A    between atoms: _557  and  _559
REMARK  207  A    between atoms: _559  and  _560
REMARK  208  A    between atoms: _559  and  _562
REMARK  209  A    between atoms: _562  and  _563
REMARK  210  A    between atoms: _563  and  _564
REMARK  211  A    between atoms: _564  and  _565
REMARK  212  A    between atoms: _574  and  _576
REMARK  213  A    between atoms: _576  and  _577
REMARK  214  A    between atoms: _576  and  _579
REMARK  215  A    between atoms: _579  and  _580
REMARK  216  A    between atoms: _582  and  _584
REMARK  217  A    between atoms: _584  and  _585
REMARK  218  A    between atoms: _584  and  _587
REMARK  219  A    between atoms: _587  and  _588
REMARK  220  A    between atoms: _591  and  _593
REMARK  221  A    between atoms: _593  and  _594
REMARK  222  A    between atoms: _593  and  _596
REMARK  223  A    between atoms: _596  and  _597
REMARK  224  A    between atoms: _601  and  _602
REMARK  225  A    between atoms: _607  and  _609
REMARK  226  A    between atoms: _609  and  _610
REMARK  227  A    between atoms: _609  and  _612
REMARK  228  A    between atoms: _612  and  _613
REMARK  229  A    between atoms: _618  and  _620
REMARK  230  A    between atoms: _620  and  _621
REMARK  231  A    between atoms: _620  and  _623
REMARK  232  A    between atoms: _623  and  _624
REMARK  233  A    between atoms: _627  and  _629
REMARK  234  A    between atoms: _629  and  _630
REMARK  235  A    between atoms: _629  and  _632
REMARK  236  A    between atoms: _632  and  _633
REMARK  237  A    between atoms: _639  and  _641
REMARK  238  A    between atoms: _641  and  _642
REMARK  239  A    between atoms: _641  and  _644
REMARK  240  A    between atoms: _644  and  _645
REMARK  241  A    between atoms: _650  and  _652
REMARK  242  A    between atoms: _652  and  _653
REMARK  243  A    between atoms: _652  and  _655
REMARK  244  A    between atoms: _655  and  _656
REMARK  245  A    between atoms: _658  and  _660
REMARK  246  A    between atoms: _660  and  _661
REMARK  247  A    between atoms: _664  and  _666
REMARK  248  A    between atoms: _666  and  _667
REMARK  249  A    between atoms: _666  and  _669
REMARK  250  A    between atoms: _669  and  _670
REMARK  251  A    between atoms: _675  and  _677
REMARK  252  A    between atoms: _677  and  _678
REMARK  253  A    between atoms: _677  and  _680
REMARK  254  A    between atoms: _680  and  _681
REMARK  255  A    between atoms: _684  and  _686
REMARK  256  A    between atoms: _686  and  _687
REMARK  257  A    between atoms: _686  and  _689
REMARK  258  A    between atoms: _689  and  _690
REMARK  259  A    between atoms: _690  and  _691
REMARK  260  A    between atoms: _693  and  _695
REMARK  261  A    between atoms: _695  and  _696
REMARK  262  A    between atoms: _695  and  _698
REMARK  263  A    between atoms: _698  and  _699
REMARK  264  A    between atoms: _704  and  _705
REMARK  265  A    between atoms: _708  and  _709
REMARK  266  A    between atoms: _714  and  _716
REMARK  267  A    between atoms: _716  and  _717
REMARK  268  A    between atoms: _716  and  _719
REMARK  269  A    between atoms: _719  and  _720
REMARK                            x       y       z     vdW  Elec       q    Type
REMARK                         _______ _______ _______ _____ _____    ______ ____
ROOT
ATOM      1  O   HOH     1      29.710  38.253  17.738  0.00  0.00    +0.000 OA
ENDROOT
TORSDOF 0
REMARK  Name = ../refined-set-2016/1hfs/1hfs_pocket.pdb
REMARK  269 active torsions:
REMARK  status: ('A' for Active; 'I' for Inactive)
REMARK    1  A    between atoms: _1  and  _3
REMARK    2  A    between atoms: _3  and  _4
REMARK    3  A    between atoms: _3  and  _6
REMARK    4  A    between atoms: _6  and  _7
REMARK    5  A    between atoms: _11  and  ZN_724
REMARK    6  A    between atoms: _12  and  _14
REMARK    7  A    between atoms: _14  and  _15
REMARK    8  A    between atoms: _14  and  _17
REMARK    9  A    between atoms: _17  and  _18
REMARK   10  A    between atoms: _18  and  _20
REMARK   11  A    between atoms: _20  and  ZN_724
REMARK   12  A    between atoms: _21  and  _23
REMARK   13  A    between atoms: _23  and  _24
REMARK   14  A    between atoms: _23  and  _26
REMARK   15  A    between atoms: _26  and  _27
REMARK   16  A    between atoms: _33  and  _35
REMARK   17  A    between atoms: _35  and  _36
REMARK   18  A    between atoms: _35  and  _38
REMARK   19  A    between atoms: _38  and  _39
REMARK   20  A    between atoms: _44  and  _45
REMARK   21  A    between atoms: _48  and  _49
REMARK   22  A    between atoms: _54  and  _56
REMARK   23  A    between atoms: _56  and  _57
REMARK   24  A    between atoms: _56  and  _59
REMARK   25  A    between atoms: _59  and  _60
REMARK   26  A    between atoms: _66  and  _68
REMARK   27  A    between atoms: _68  and  _69
REMARK   28  A    between atoms: _68  and  _71
REMARK   29  A    between atoms: _71  and  _72
REMARK   30  A    between atoms: _76  and  _77
REMARK   31  A    between atoms: _82  and  _84
REMARK   32  A    between atoms: _89  and  _92
REMARK   33  A    between atoms: _92  and  _93
REMARK   34  A    between atoms: _100  and  _103
REMARK   35  A    between atoms: _101  and  _106
REMARK   36  A    between atoms: _106  and  _108
REMARK   37  A    between atoms: _108  and  _109
REMARK   38  A    between atoms: _108  and  _111
REMARK   39  A    between atoms: _111  and  _112
REMARK   40  A    between atoms: _115  and  _117
REMARK   41  A    between atoms: _117  and  _118
REMARK   42  A    between atoms: _121  and  _123
REMARK   43  A    between atoms: _123  and  _124
REMARK   44  A    between atoms: _123  and  _126
REMARK   45  A    between atoms: _126  and  _127
REMARK   46  A    between atoms: _131  and  ZN_724
REMARK   47  A    between atoms: _132  and  _134
REMARK   48  A    between atoms: _134  and  _135
REMARK   49  A    between atoms: _138  and  _140
REMARK   50  A    between atoms: _140  and  _141
REMARK   51  A    between atoms: _140  and  _143
REMARK   52  A    between atoms: _143  and  _144
REMARK   53  A    between atoms: _149  and  _150
REMARK   54  A    between atoms: _152  and  _154
REMARK   55  A    between atoms: _154  and  _155
REMARK   56  A    between atoms: _158  and  _160
REMARK   57  A    between atoms: _160  and  _161
REMARK   58  A    between atoms: _160  and  _163
REMARK   59  A    between atoms: _163  and  _164
REMARK   60  A    between atoms: _167  and  _169
REMARK   61  A    between atoms: _169  and  _170
REMARK   62  A    between atoms: _172  and  _174
REMARK   63  A    between atoms: _174  and  _175
REMARK   64  A    between atoms: _174  and  _177
REMARK   65  A    between atoms: _177  and  _178
REMARK   66  A    between atoms: _181  and  _183
REMARK   67  A    between atoms: _183  and  _184
REMARK   68  A    between atoms: _183  and  _186
REMARK   69  A    between atoms: _186  and  _187
REMARK   70  A    between atoms: _188  and  ZN_724
REMARK   71  A    between atoms: _192  and  _194
REMARK   72  A    between atoms: _194  and  _195
REMARK   73  A    between atoms: _194  and  _197
REMARK   74  A    between atoms: _197  and  _198
REMARK   75  A    between atoms: _201  and  _203
REMARK   76  A    between atoms: _203  and  _204
REMARK   77  A    between atoms: _203  and  _206
REMARK   78  A    between atoms: _206  and  _207
REMARK   79  A    between atoms: _207  and  _208
REMARK   80  A    between atoms: _211  and  _213
REMARK   81  A    between atoms: _213  and  _214
REMARK   82  A    between atoms: _213  and  _216
REMARK   83  A    between atoms: _216  and  _217
REMARK   84  A    between atoms: _227  and  _229
REMARK   85  A    between atoms: _229  and  _230
REMARK   86  A    between atoms: _232  and  _234
REMARK   87  A    between atoms: _234  and  _235
REMARK   88  A    between atoms: _234  and  _237
REMARK   89  A    between atoms: _237  and  _238
REMARK   90  A    between atoms: _241  and  _243
REMARK   91  A    between atoms: _243  and  _244
REMARK   92  A    between atoms: _243  and  _246
REMARK   93  A    between atoms: _246  and  _247
REMARK   94  A    between atoms: _252  and  _254
REMARK   95  A    between atoms: _254  and  _255
REMARK   96  A    between atoms: _254  and  _257
REMARK   97  A    between atoms: _257  and  _258
REMARK   98  A    between atoms: _261  and  _263
REMARK   99  A    between atoms: _263  and  _264
REMARK  100  A    between atoms: _263  and  _266
REMARK  101  A    between atoms: _266  and  _267
REMARK  102  A    between atoms: _273  and  _275
REMARK  103  A    between atoms: _275  and  _276
REMARK  104  A    between atoms: _275  and  _278
REMARK  105  A    between atoms: _278  and  _279
REMARK  106  A    between atoms: _282  and  _284
REMARK  107  A    between atoms: _284  and  _285
REMARK  108  A    between atoms: _284  and  _287
REMARK  109  A    between atoms: _290  and  _292
REMARK  110  A    between atoms: _292  and  _293
REMARK  111  A    between atoms: _296  and  _298
REMARK  112  A    between atoms: _298  and  _299
REMARK  113  A    between atoms: _302  and  _304
REMARK  114  A    between atoms: _315  and  _318
REMARK  115  A    between atoms: _318  and  _319
REMARK  116  A    between atoms: _319  and  _320
REMARK  117  A    between atoms: _325  and  _328
REMARK  118  A    between atoms: _328  and  _329
REMARK  119  A    between atoms: _339  and  _340
REMARK  120  A    between atoms: _348  and  _350
REMARK  121  A    between atoms: _350  and  _351
REMARK  122  A    between atoms: _350  and  _353
REMARK  123  A    between atoms: _353  and  _354
REMARK  124  A    between atoms: _356  and  _358
REMARK  125  A    between atoms: _358  and  _359
REMARK  126  A    between atoms: _358  and  _361
REMARK  127  A    between atoms: _361  and  _362
REMARK  128  A    between atoms: _366  and  ZN_723
REMARK  129  A    between atoms: _367  and  _369
REMARK  130  A    between atoms: _369  and  _370
REMARK  131  A    between atoms: _369  and  _372
REMARK  132  A    between atoms: _372  and  _373
REMARK  133  A    between atoms: _375  and  _377
REMARK  134  A    between atoms: _377  and  _378
REMARK  135  A    between atoms: _377  and  _380
REMARK  136  A    between atoms: _380  and  _381
REMARK  137  A    between atoms: _386  and  _388
REMARK  138  A    between atoms: _388  and  _389
REMARK  139  A    between atoms: _388  and  _391
REMARK  140  A    between atoms: _391  and  _392
REMARK  141  A    between atoms: _395  and  _397
REMARK  142  A    between atoms: _397  and  _398
REMARK  143  A    between atoms: _397  and  _400
REMARK  144  A    between atoms: _400  and  _401
REMARK  145  A    between atoms: _401  and  _402
REMARK  146  A    between atoms: _405  and  _407
REMARK  147  A    between atoms: _407  and  _408
REMARK  148  A    between atoms: _411  and  _413
REMARK  149  A    between atoms: _413  and  _414
REMARK  150  A    between atoms: _413  and  _416
REMARK  151  A    between atoms: _416  and  _417
REMARK  152  A    between atoms: _420  and  _422
REMARK  153  A    between atoms: _422  and  _423
REMARK  154  A    between atoms: _422  and  _425
REMARK  155  A    between atoms: _425  and  _426
REMARK  156  A    between atoms: _426  and  _427
REMARK  157  A    between atoms: _429  and  _431
REMARK  158  A    between atoms: _431  and  _432
REMARK  159  A    between atoms: _431  and  _434
REMARK  160  A    between atoms: _434  and  _435
REMARK  161  A    between atoms: _440  and  _441
REMARK  162  A    between atoms: _444  and  _445
REMARK  163  A    between atoms: _450  and  _452
REMARK  164  A    between atoms: _452  and  _453
REMARK  165  A    between atoms: _452  and  _455
REMARK  166  A    between atoms: _455  and  _456
REMARK  167  A    between atoms: _459  and  _461
REMARK  168  A    between atoms: _461  and  _462
REMARK  169  A    between atoms: _461  and  _464
REMARK  170  A    between atoms: _464  and  _465
REMARK  171  A    between atoms: _470  and  _471
REMARK  172  A    between atoms: _473  and  _475
REMARK  173  A    between atoms: _475  and  _476
REMARK  174  A    between atoms: _475  and  _478
REMARK  175  A    between atoms: _478  and  _479
REMARK  176  A    between atoms: _484  and  _486
REMARK  177  A    between atoms: _486  and  _487
REMARK  178  A    between atoms: _486  and  _489
REMARK  179  A    between atoms: _489  and  _490
REMARK  180  A    between atoms: _492  and  _494
REMARK  181  A    between atoms: _494  and  _495
REMARK  182  A    between atoms: _494  and  _497
REMARK  183  A    between atoms: _497  and  _498
REMARK  184  A    between atoms: _501  and  _503
REMARK  185  A    between atoms: _503  and  _504
REMARK  186  A    between atoms: _503  and  _506
REMARK  187  A    between atoms: _506  and  _507
REMARK  188  A    between atoms: _510  and  _512
REMARK  189  A    between atoms: _512  and  _513
REMARK  190  A    between atoms: _512  and  _515
REMARK  191  A    between atoms: _515  and  _516
REMARK  192  A    between atoms: _519  and  _521
REMARK  193  A    between atoms: _521  and  _522
REMARK  194  A    between atoms: _521  and  _524
REMARK  195  A    between atoms: _524  and  _525
REMARK  196  A    between atoms: _528  and  _530
REMARK  197  A    between atoms: _530  and  _531
REMARK  198  A    between atoms: _530  and  _533
REMARK  199  A    between atoms: _533  and  _534
REMARK  200  A    between atoms: _534  and  _535
REMARK  201  A    between atoms: _535  and  _536
REMARK  202  A    between atoms: _545  and  _547
REMARK  203  A    between atoms: _547  and  _548
REMARK  204  A    between atoms: _547  and  _550
REMARK  205  A    between atoms: _550  and  _551
REMARK  206  A    between atoms: _557  and  _559
REMARK  207  A    between atoms: _559  and  _560
REMARK  208  A    between atoms: _559  and  _562
REMARK  209  A    between atoms: _562  and  _563
REMARK  210  A    between atoms: _563  and  _564
REMARK  211  A    between atoms: _564  and  _565
REMARK  212  A    between atoms: _574  and  _576
REMARK  213  A    between atoms: _576  and  _577
REMARK  214  A    between atoms: _576  and  _579
REMARK  215  A    between atoms: _579  and  _580
REMARK  216  A    between atoms: _582  and  _584
REMARK  217  A    between atoms: _584  and  _585
REMARK  218  A    between atoms: _584  and  _587
REMARK  219  A    between atoms: _587  and  _588
REMARK  220  A    between atoms: _591  and  _593
REMARK  221  A    between atoms: _593  and  _594
REMARK  222  A    between atoms: _593  and  _596
REMARK  223  A    between atoms: _596  and  _597
REMARK  224  A    between atoms: _601  and  _602
REMARK  225  A    between atoms: _607  and  _609
REMARK  226  A    between atoms: _609  and  _610
REMARK  227  A    between atoms: _609  and  _612
REMARK  228  A    between atoms: _612  and  _613
REMARK  229  A    between atoms: _618  and  _620
REMARK  230  A    between atoms: _620  and  _621
REMARK  231  A    between atoms: _620  and  _623
REMARK  232  A    between atoms: _623  and  _624
REMARK  233  A    between atoms: _627  and  _629
REMARK  234  A    between atoms: _629  and  _630
REMARK  235  A    between atoms: _629  and  _632
REMARK  236  A    between atoms: _632  and  _633
REMARK  237  A    between atoms: _639  and  _641
REMARK  238  A    between atoms: _641  and  _642
REMARK  239  A    between atoms: _641  and  _644
REMARK  240  A    between atoms: _644  and  _645
REMARK  241  A    between atoms: _650  and  _652
REMARK  242  A    between atoms: _652  and  _653
REMARK  243  A    between atoms: _652  and  _655
REMARK  244  A    between atoms: _655  and  _656
REMARK  245  A    between atoms: _658  and  _660
REMARK  246  A    between atoms: _660  and  _661
REMARK  247  A    between atoms: _664  and  _666
REMARK  248  A    between atoms: _666  and  _667
REMARK  249  A    between atoms: _666  and  _669
REMARK  250  A    between atoms: _669  and  _670
REMARK  251  A    between atoms: _675  and  _677
REMARK  252  A    between atoms: _677  and  _678
REMARK  253  A    between atoms: _677  and  _680
REMARK  254  A    between atoms: _680  and  _681
REMARK  255  A    between atoms: _684  and  _686
REMARK  256  A    between atoms: _686  and  _687
REMARK  257  A    between atoms: _686  and  _689
REMARK  258  A    between atoms: _689  and  _690
REMARK  259  A    between atoms: _690  and  _691
REMARK  260  A    between atoms: _693  and  _695
REMARK  261  A    between atoms: _695  and  _696
REMARK  262  A    between atoms: _695  and  _698
REMARK  263  A    between atoms: _698  and  _699
REMARK  264  A    between atoms: _704  and  _705
REMARK  265  A    between atoms: _708  and  _709
REMARK  266  A    between atoms: _714  and  _716
REMARK  267  A    between atoms: _716  and  _717
REMARK  268  A    between atoms: _716  and  _719
REMARK  269  A    between atoms: _719  and  _720
REMARK                            x       y       z     vdW  Elec       q    Type
REMARK                         _______ _______ _______ _____ _____    ______ ____
ROOT
ATOM      1  O   HOH     1      30.313  44.198  29.095  0.00  0.00    +0.000 OA
ENDROOT
TORSDOF 0
REMARK  Name = ../refined-set-2016/1hfs/1hfs_pocket.pdb
REMARK  269 active torsions:
REMARK  status: ('A' for Active; 'I' for Inactive)
REMARK    1  A    between atoms: _1  and  _3
REMARK    2  A    between atoms: _3  and  _4
REMARK    3  A    between atoms: _3  and  _6
REMARK    4  A    between atoms: _6  and  _7
REMARK    5  A    between atoms: _11  and  ZN_724
REMARK    6  A    between atoms: _12  and  _14
REMARK    7  A    between atoms: _14  and  _15
REMARK    8  A    between atoms: _14  and  _17
REMARK    9  A    between atoms: _17  and  _18
REMARK   10  A    between atoms: _18  and  _20
REMARK   11  A    between atoms: _20  and  ZN_724
REMARK   12  A    between atoms: _21  and  _23
REMARK   13  A    between atoms: _23  and  _24
REMARK   14  A    between atoms: _23  and  _26
REMARK   15  A    between atoms: _26  and  _27
REMARK   16  A    between atoms: _33  and  _35
REMARK   17  A    between atoms: _35  and  _36
REMARK   18  A    between atoms: _35  and  _38
REMARK   19  A    between atoms: _38  and  _39
REMARK   20  A    between atoms: _44  and  _45
REMARK   21  A    between atoms: _48  and  _49
REMARK   22  A    between atoms: _54  and  _56
REMARK   23  A    between atoms: _56  and  _57
REMARK   24  A    between atoms: _56  and  _59
REMARK   25  A    between atoms: _59  and  _60
REMARK   26  A    between atoms: _66  and  _68
REMARK   27  A    between atoms: _68  and  _69
REMARK   28  A    between atoms: _68  and  _71
REMARK   29  A    between atoms: _71  and  _72
REMARK   30  A    between atoms: _76  and  _77
REMARK   31  A    between atoms: _82  and  _84
REMARK   32  A    between atoms: _89  and  _92
REMARK   33  A    between atoms: _92  and  _93
REMARK   34  A    between atoms: _100  and  _103
REMARK   35  A    between atoms: _101  and  _106
REMARK   36  A    between atoms: _106  and  _108
REMARK   37  A    between atoms: _108  and  _109
REMARK   38  A    between atoms: _108  and  _111
REMARK   39  A    between atoms: _111  and  _112
REMARK   40  A    between atoms: _115  and  _117
REMARK   41  A    between atoms: _117  and  _118
REMARK   42  A    between atoms: _121  and  _123
REMARK   43  A    between atoms: _123  and  _124
REMARK   44  A    between atoms: _123  and  _126
REMARK   45  A    between atoms: _126  and  _127
REMARK   46  A    between atoms: _131  and  ZN_724
REMARK   47  A    between atoms: _132  and  _134
REMARK   48  A    between atoms: _134  and  _135
REMARK   49  A    between atoms: _138  and  _140
REMARK   50  A    between atoms: _140  and  _141
REMARK   51  A    between atoms: _140  and  _143
REMARK   52  A    between atoms: _143  and  _144
REMARK   53  A    between atoms: _149  and  _150
REMARK   54  A    between atoms: _152  and  _154
REMARK   55  A    between atoms: _154  and  _155
REMARK   56  A    between atoms: _158  and  _160
REMARK   57  A    between atoms: _160  and  _161
REMARK   58  A    between atoms: _160  and  _163
REMARK   59  A    between atoms: _163  and  _164
REMARK   60  A    between atoms: _167  and  _169
REMARK   61  A    between atoms: _169  and  _170
REMARK   62  A    between atoms: _172  and  _174
REMARK   63  A    between atoms: _174  and  _175
REMARK   64  A    between atoms: _174  and  _177
REMARK   65  A    between atoms: _177  and  _178
REMARK   66  A    between atoms: _181  and  _183
REMARK   67  A    between atoms: _183  and  _184
REMARK   68  A    between atoms: _183  and  _186
REMARK   69  A    between atoms: _186  and  _187
REMARK   70  A    between atoms: _188  and  ZN_724
REMARK   71  A    between atoms: _192  and  _194
REMARK   72  A    between atoms: _194  and  _195
REMARK   73  A    between atoms: _194  and  _197
REMARK   74  A    between atoms: _197  and  _198
REMARK   75  A    between atoms: _201  and  _203
REMARK   76  A    between atoms: _203  and  _204
REMARK   77  A    between atoms: _203  and  _206
REMARK   78  A    between atoms: _206  and  _207
REMARK   79  A    between atoms: _207  and  _208
REMARK   80  A    between atoms: _211  and  _213
REMARK   81  A    between atoms: _213  and  _214
REMARK   82  A    between atoms: _213  and  _216
REMARK   83  A    between atoms: _216  and  _217
REMARK   84  A    between atoms: _227  and  _229
REMARK   85  A    between atoms: _229  and  _230
REMARK   86  A    between atoms: _232  and  _234
REMARK   87  A    between atoms: _234  and  _235
REMARK   88  A    between atoms: _234  and  _237
REMARK   89  A    between atoms: _237  and  _238
REMARK   90  A    between atoms: _241  and  _243
REMARK   91  A    between atoms: _243  and  _244
REMARK   92  A    between atoms: _243  and  _246
REMARK   93  A    between atoms: _246  and  _247
REMARK   94  A    between atoms: _252  and  _254
REMARK   95  A    between atoms: _254  and  _255
REMARK   96  A    between atoms: _254  and  _257
REMARK   97  A    between atoms: _257  and  _258
REMARK   98  A    between atoms: _261  and  _263
REMARK   99  A    between atoms: _263  and  _264
REMARK  100  A    between atoms: _263  and  _266
REMARK  101  A    between atoms: _266  and  _267
REMARK  102  A    between atoms: _273  and  _275
REMARK  103  A    between atoms: _275  and  _276
REMARK  104  A    between atoms: _275  and  _278
REMARK  105  A    between atoms: _278  and  _279
REMARK  106  A    between atoms: _282  and  _284
REMARK  107  A    between atoms: _284  and  _285
REMARK  108  A    between atoms: _284  and  _287
REMARK  109  A    between atoms: _290  and  _292
REMARK  110  A    between atoms: _292  and  _293
REMARK  111  A    between atoms: _296  and  _298
REMARK  112  A    between atoms: _298  and  _299
REMARK  113  A    between atoms: _302  and  _304
REMARK  114  A    between atoms: _315  and  _318
REMARK  115  A    between atoms: _318  and  _319
REMARK  116  A    between atoms: _319  and  _320
REMARK  117  A    between atoms: _325  and  _328
REMARK  118  A    between atoms: _328  and  _329
REMARK  119  A    between atoms: _339  and  _340
REMARK  120  A    between atoms: _348  and  _350
REMARK  121  A    between atoms: _350  and  _351
REMARK  122  A    between atoms: _350  and  _353
REMARK  123  A    between atoms: _353  and  _354
REMARK  124  A    between atoms: _356  and  _358
REMARK  125  A    between atoms: _358  and  _359
REMARK  126  A    between atoms: _358  and  _361
REMARK  127  A    between atoms: _361  and  _362
REMARK  128  A    between atoms: _366  and  ZN_723
REMARK  129  A    between atoms: _367  and  _369
REMARK  130  A    between atoms: _369  and  _370
REMARK  131  A    between atoms: _369  and  _372
REMARK  132  A    between atoms: _372  and  _373
REMARK  133  A    between atoms: _375  and  _377
REMARK  134  A    between atoms: _377  and  _378
REMARK  135  A    between atoms: _377  and  _380
REMARK  136  A    between atoms: _380  and  _381
REMARK  137  A    between atoms: _386  and  _388
REMARK  138  A    between atoms: _388  and  _389
REMARK  139  A    between atoms: _388  and  _391
REMARK  140  A    between atoms: _391  and  _392
REMARK  141  A    between atoms: _395  and  _397
REMARK  142  A    between atoms: _397  and  _398
REMARK  143  A    between atoms: _397  and  _400
REMARK  144  A    between atoms: _400  and  _401
REMARK  145  A    between atoms: _401  and  _402
REMARK  146  A    between atoms: _405  and  _407
REMARK  147  A    between atoms: _407  and  _408
REMARK  148  A    between atoms: _411  and  _413
REMARK  149  A    between atoms: _413  and  _414
REMARK  150  A    between atoms: _413  and  _416
REMARK  151  A    between atoms: _416  and  _417
REMARK  152  A    between atoms: _420  and  _422
REMARK  153  A    between atoms: _422  and  _423
REMARK  154  A    between atoms: _422  and  _425
REMARK  155  A    between atoms: _425  and  _426
REMARK  156  A    between atoms: _426  and  _427
REMARK  157  A    between atoms: _429  and  _431
REMARK  158  A    between atoms: _431  and  _432
REMARK  159  A    between atoms: _431  and  _434
REMARK  160  A    between atoms: _434  and  _435
REMARK  161  A    between atoms: _440  and  _441
REMARK  162  A    between atoms: _444  and  _445
REMARK  163  A    between atoms: _450  and  _452
REMARK  164  A    between atoms: _452  and  _453
REMARK  165  A    between atoms: _452  and  _455
REMARK  166  A    between atoms: _455  and  _456
REMARK  167  A    between atoms: _459  and  _461
REMARK  168  A    between atoms: _461  and  _462
REMARK  169  A    between atoms: _461  and  _464
REMARK  170  A    between atoms: _464  and  _465
REMARK  171  A    between atoms: _470  and  _471
REMARK  172  A    between atoms: _473  and  _475
REMARK  173  A    between atoms: _475  and  _476
REMARK  174  A    between atoms: _475  and  _478
REMARK  175  A    between atoms: _478  and  _479
REMARK  176  A    between atoms: _484  and  _486
REMARK  177  A    between atoms: _486  and  _487
REMARK  178  A    between atoms: _486  and  _489
REMARK  179  A    between atoms: _489  and  _490
REMARK  180  A    between atoms: _492  and  _494
REMARK  181  A    between atoms: _494  and  _495
REMARK  182  A    between atoms: _494  and  _497
REMARK  183  A    between atoms: _497  and  _498
REMARK  184  A    between atoms: _501  and  _503
REMARK  185  A    between atoms: _503  and  _504
REMARK  186  A    between atoms: _503  and  _506
REMARK  187  A    between atoms: _506  and  _507
REMARK  188  A    between atoms: _510  and  _512
REMARK  189  A    between atoms: _512  and  _513
REMARK  190  A    between atoms: _512  and  _515
REMARK  191  A    between atoms: _515  and  _516
REMARK  192  A    between atoms: _519  and  _521
REMARK  193  A    between atoms: _521  and  _522
REMARK  194  A    between atoms: _521  and  _524
REMARK  195  A    between atoms: _524  and  _525
REMARK  196  A    between atoms: _528  and  _530
REMARK  197  A    between atoms: _530  and  _531
REMARK  198  A    between atoms: _530  and  _533
REMARK  199  A    between atoms: _533  and  _534
REMARK  200  A    between atoms: _534  and  _535
REMARK  201  A    between atoms: _535  and  _536
REMARK  202  A    between atoms: _545  and  _547
REMARK  203  A    between atoms: _547  and  _548
REMARK  204  A    between atoms: _547  and  _550
REMARK  205  A    between atoms: _550  and  _551
REMARK  206  A    between atoms: _557  and  _559
REMARK  207  A    between atoms: _559  and  _560
REMARK  208  A    between atoms: _559  and  _562
REMARK  209  A    between atoms: _562  and  _563
REMARK  210  A    between atoms: _563  and  _564
REMARK  211  A    between atoms: _564  and  _565
REMARK  212  A    between atoms: _574  and  _576
REMARK  213  A    between atoms: _576  and  _577
REMARK  214  A    between atoms: _576  and  _579
REMARK  215  A    between atoms: _579  and  _580
REMARK  216  A    between atoms: _582  and  _584
REMARK  217  A    between atoms: _584  and  _585
REMARK  218  A    between atoms: _584  and  _587
REMARK  219  A    between atoms: _587  and  _588
REMARK  220  A    between atoms: _591  and  _593
REMARK  221  A    between atoms: _593  and  _594
REMARK  222  A    between atoms: _593  and  _596
REMARK  223  A    between atoms: _596  and  _597
REMARK  224  A    between atoms: _601  and  _602
REMARK  225  A    between atoms: _607  and  _609
REMARK  226  A    between atoms: _609  and  _610
REMARK  227  A    between atoms: _609  and  _612
REMARK  228  A    between atoms: _612  and  _613
REMARK  229  A    between atoms: _618  and  _620
REMARK  230  A    between atoms: _620  and  _621
REMARK  231  A    between atoms: _620  and  _623
REMARK  232  A    between atoms: _623  and  _624
REMARK  233  A    between atoms: _627  and  _629
REMARK  234  A    between atoms: _629  and  _630
REMARK  235  A    between atoms: _629  and  _632
REMARK  236  A    between atoms: _632  and  _633
REMARK  237  A    between atoms: _639  and  _641
REMARK  238  A    between atoms: _641  and  _642
REMARK  239  A    between atoms: _641  and  _644
REMARK  240  A    between atoms: _644  and  _645
REMARK  241  A    between atoms: _650  and  _652
REMARK  242  A    between atoms: _652  and  _653
REMARK  243  A    between atoms: _652  and  _655
REMARK  244  A    between atoms: _655  and  _656
REMARK  245  A    between atoms: _658  and  _660
REMARK  246  A    between atoms: _660  and  _661
REMARK  247  A    between atoms: _664  and  _666
REMARK  248  A    between atoms: _666  and  _667
REMARK  249  A    between atoms: _666  and  _669
REMARK  250  A    between atoms: _669  and  _670
REMARK  251  A    between atoms: _675  and  _677
REMARK  252  A    between atoms: _677  and  _678
REMARK  253  A    between atoms: _677  and  _680
REMARK  254  A    between atoms: _680  and  _681
REMARK  255  A    between atoms: _684  and  _686
REMARK  256  A    between atoms: _686  and  _687
REMARK  257  A    between atoms: _686  and  _689
REMARK  258  A    between atoms: _689  and  _690
REMARK  259  A    between atoms: _690  and  _691
REMARK  260  A    between atoms: _693  and  _695
REMARK  261  A    between atoms: _695  and  _696
REMARK  262  A    between atoms: _695  and  _698
REMARK  263  A    between atoms: _698  and  _699
REMARK  264  A    between atoms: _704  and  _705
REMARK  265  A    between atoms: _708  and  _709
REMARK  266  A    between atoms: _714  and  _716
REMARK  267  A    between atoms: _716  and  _717
REMARK  268  A    between atoms: _716  and  _719
REMARK  269  A    between atoms: _719  and  _720
REMARK                            x       y       z     vdW  Elec       q    Type
REMARK                         _______ _______ _______ _____ _____    ______ ____
ROOT
ATOM      1  O   HOH     1      40.518  34.568  33.421  0.00  0.00    +0.000 OA
ENDROOT
TORSDOF 0
REMARK  Name = ../refined-set-2016/1hfs/1hfs_pocket.pdb
REMARK  269 active torsions:
REMARK  status: ('A' for Active; 'I' for Inactive)
REMARK    1  A    between atoms: _1  and  _3
REMARK    2  A    between atoms: _3  and  _4
REMARK    3  A    between atoms: _3  and  _6
REMARK    4  A    between atoms: _6  and  _7
REMARK    5  A    between atoms: _11  and  ZN_724
REMARK    6  A    between atoms: _12  and  _14
REMARK    7  A    between atoms: _14  and  _15
REMARK    8  A    between atoms: _14  and  _17
REMARK    9  A    between atoms: _17  and  _18
REMARK   10  A    between atoms: _18  and  _20
REMARK   11  A    between atoms: _20  and  ZN_724
REMARK   12  A    between atoms: _21  and  _23
REMARK   13  A    between atoms: _23  and  _24
REMARK   14  A    between atoms: _23  and  _26
REMARK   15  A    between atoms: _26  and  _27
REMARK   16  A    between atoms: _33  and  _35
REMARK   17  A    between atoms: _35  and  _36
REMARK   18  A    between atoms: _35  and  _38
REMARK   19  A    between atoms: _38  and  _39
REMARK   20  A    between atoms: _44  and  _45
REMARK   21  A    between atoms: _48  and  _49
REMARK   22  A    between atoms: _54  and  _56
REMARK   23  A    between atoms: _56  and  _57
REMARK   24  A    between atoms: _56  and  _59
REMARK   25  A    between atoms: _59  and  _60
REMARK   26  A    between atoms: _66  and  _68
REMARK   27  A    between atoms: _68  and  _69
REMARK   28  A    between atoms: _68  and  _71
REMARK   29  A    between atoms: _71  and  _72
REMARK   30  A    between atoms: _76  and  _77
REMARK   31  A    between atoms: _82  and  _84
REMARK   32  A    between atoms: _89  and  _92
REMARK   33  A    between atoms: _92  and  _93
REMARK   34  A    between atoms: _100  and  _103
REMARK   35  A    between atoms: _101  and  _106
REMARK   36  A    between atoms: _106  and  _108
REMARK   37  A    between atoms: _108  and  _109
REMARK   38  A    between atoms: _108  and  _111
REMARK   39  A    between atoms: _111  and  _112
REMARK   40  A    between atoms: _115  and  _117
REMARK   41  A    between atoms: _117  and  _118
REMARK   42  A    between atoms: _121  and  _123
REMARK   43  A    between atoms: _123  and  _124
REMARK   44  A    between atoms: _123  and  _126
REMARK   45  A    between atoms: _126  and  _127
REMARK   46  A    between atoms: _131  and  ZN_724
REMARK   47  A    between atoms: _132  and  _134
REMARK   48  A    between atoms: _134  and  _135
REMARK   49  A    between atoms: _138  and  _140
REMARK   50  A    between atoms: _140  and  _141
REMARK   51  A    between atoms: _140  and  _143
REMARK   52  A    between atoms: _143  and  _144
REMARK   53  A    between atoms: _149  and  _150
REMARK   54  A    between atoms: _152  and  _154
REMARK   55  A    between atoms: _154  and  _155
REMARK   56  A    between atoms: _158  and  _160
REMARK   57  A    between atoms: _160  and  _161
REMARK   58  A    between atoms: _160  and  _163
REMARK   59  A    between atoms: _163  and  _164
REMARK   60  A    between atoms: _167  and  _169
REMARK   61  A    between atoms: _169  and  _170
REMARK   62  A    between atoms: _172  and  _174
REMARK   63  A    between atoms: _174  and  _175
REMARK   64  A    between atoms: _174  and  _177
REMARK   65  A    between atoms: _177  and  _178
REMARK   66  A    between atoms: _181  and  _183
REMARK   67  A    between atoms: _183  and  _184
REMARK   68  A    between atoms: _183  and  _186
REMARK   69  A    between atoms: _186  and  _187
REMARK   70  A    between atoms: _188  and  ZN_724
REMARK   71  A    between atoms: _192  and  _194
REMARK   72  A    between atoms: _194  and  _195
REMARK   73  A    between atoms: _194  and  _197
REMARK   74  A    between atoms: _197  and  _198
REMARK   75  A    between atoms: _201  and  _203
REMARK   76  A    between atoms: _203  and  _204
REMARK   77  A    between atoms: _203  and  _206
REMARK   78  A    between atoms: _206  and  _207
REMARK   79  A    between atoms: _207  and  _208
REMARK   80  A    between atoms: _211  and  _213
REMARK   81  A    between atoms: _213  and  _214
REMARK   82  A    between atoms: _213  and  _216
REMARK   83  A    between atoms: _216  and  _217
REMARK   84  A    between atoms: _227  and  _229
REMARK   85  A    between atoms: _229  and  _230
REMARK   86  A    between atoms: _232  and  _234
REMARK   87  A    between atoms: _234  and  _235
REMARK   88  A    between atoms: _234  and  _237
REMARK   89  A    between atoms: _237  and  _238
REMARK   90  A    between atoms: _241  and  _243
REMARK   91  A    between atoms: _243  and  _244
REMARK   92  A    between atoms: _243  and  _246
REMARK   93  A    between atoms: _246  and  _247
REMARK   94  A    between atoms: _252  and  _254
REMARK   95  A    between atoms: _254  and  _255
REMARK   96  A    between atoms: _254  and  _257
REMARK   97  A    between atoms: _257  and  _258
REMARK   98  A    between atoms: _261  and  _263
REMARK   99  A    between atoms: _263  and  _264
REMARK  100  A    between atoms: _263  and  _266
REMARK  101  A    between atoms: _266  and  _267
REMARK  102  A    between atoms: _273  and  _275
REMARK  103  A    between atoms: _275  and  _276
REMARK  104  A    between atoms: _275  and  _278
REMARK  105  A    between atoms: _278  and  _279
REMARK  106  A    between atoms: _282  and  _284
REMARK  107  A    between atoms: _284  and  _285
REMARK  108  A    between atoms: _284  and  _287
REMARK  109  A    between atoms: _290  and  _292
REMARK  110  A    between atoms: _292  and  _293
REMARK  111  A    between atoms: _296  and  _298
REMARK  112  A    between atoms: _298  and  _299
REMARK  113  A    between atoms: _302  and  _304
REMARK  114  A    between atoms: _315  and  _318
REMARK  115  A    between atoms: _318  and  _319
REMARK  116  A    between atoms: _319  and  _320
REMARK  117  A    between atoms: _325  and  _328
REMARK  118  A    between atoms: _328  and  _329
REMARK  119  A    between atoms: _339  and  _340
REMARK  120  A    between atoms: _348  and  _350
REMARK  121  A    between atoms: _350  and  _351
REMARK  122  A    between atoms: _350  and  _353
REMARK  123  A    between atoms: _353  and  _354
REMARK  124  A    between atoms: _356  and  _358
REMARK  125  A    between atoms: _358  and  _359
REMARK  126  A    between atoms: _358  and  _361
REMARK  127  A    between atoms: _361  and  _362
REMARK  128  A    between atoms: _366  and  ZN_723
REMARK  129  A    between atoms: _367  and  _369
REMARK  130  A    between atoms: _369  and  _370
REMARK  131  A    between atoms: _369  and  _372
REMARK  132  A    between atoms: _372  and  _373
REMARK  133  A    between atoms: _375  and  _377
REMARK  134  A    between atoms: _377  and  _378
REMARK  135  A    between atoms: _377  and  _380
REMARK  136  A    between atoms: _380  and  _381
REMARK  137  A    between atoms: _386  and  _388
REMARK  138  A    between atoms: _388  and  _389
REMARK  139  A    between atoms: _388  and  _391
REMARK  140  A    between atoms: _391  and  _392
REMARK  141  A    between atoms: _395  and  _397
REMARK  142  A    between atoms: _397  and  _398
REMARK  143  A    between atoms: _397  and  _400
REMARK  144  A    between atoms: _400  and  _401
REMARK  145  A    between atoms: _401  and  _402
REMARK  146  A    between atoms: _405  and  _407
REMARK  147  A    between atoms: _407  and  _408
REMARK  148  A    between atoms: _411  and  _413
REMARK  149  A    between atoms: _413  and  _414
REMARK  150  A    between atoms: _413  and  _416
REMARK  151  A    between atoms: _416  and  _417
REMARK  152  A    between atoms: _420  and  _422
REMARK  153  A    between atoms: _422  and  _423
REMARK  154  A    between atoms: _422  and  _425
REMARK  155  A    between atoms: _425  and  _426
REMARK  156  A    between atoms: _426  and  _427
REMARK  157  A    between atoms: _429  and  _431
REMARK  158  A    between atoms: _431  and  _432
REMARK  159  A    between atoms: _431  and  _434
REMARK  160  A    between atoms: _434  and  _435
REMARK  161  A    between atoms: _440  and  _441
REMARK  162  A    between atoms: _444  and  _445
REMARK  163  A    between atoms: _450  and  _452
REMARK  164  A    between atoms: _452  and  _453
REMARK  165  A    between atoms: _452  and  _455
REMARK  166  A    between atoms: _455  and  _456
REMARK  167  A    between atoms: _459  and  _461
REMARK  168  A    between atoms: _461  and  _462
REMARK  169  A    between atoms: _461  and  _464
REMARK  170  A    between atoms: _464  and  _465
REMARK  171  A    between atoms: _470  and  _471
REMARK  172  A    between atoms: _473  and  _475
REMARK  173  A    between atoms: _475  and  _476
REMARK  174  A    between atoms: _475  and  _478
REMARK  175  A    between atoms: _478  and  _479
REMARK  176  A    between atoms: _484  and  _486
REMARK  177  A    between atoms: _486  and  _487
REMARK  178  A    between atoms: _486  and  _489
REMARK  179  A    between atoms: _489  and  _490
REMARK  180  A    between atoms: _492  and  _494
REMARK  181  A    between atoms: _494  and  _495
REMARK  182  A    between atoms: _494  and  _497
REMARK  183  A    between atoms: _497  and  _498
REMARK  184  A    between atoms: _501  and  _503
REMARK  185  A    between atoms: _503  and  _504
REMARK  186  A    between atoms: _503  and  _506
REMARK  187  A    between atoms: _506  and  _507
REMARK  188  A    between atoms: _510  and  _512
REMARK  189  A    between atoms: _512  and  _513
REMARK  190  A    between atoms: _512  and  _515
REMARK  191  A    between atoms: _515  and  _516
REMARK  192  A    between atoms: _519  and  _521
REMARK  193  A    between atoms: _521  and  _522
REMARK  194  A    between atoms: _521  and  _524
REMARK  195  A    between atoms: _524  and  _525
REMARK  196  A    between atoms: _528  and  _530
REMARK  197  A    between atoms: _530  and  _531
REMARK  198  A    between atoms: _530  and  _533
REMARK  199  A    between atoms: _533  and  _534
REMARK  200  A    between atoms: _534  and  _535
REMARK  201  A    between atoms: _535  and  _536
REMARK  202  A    between atoms: _545  and  _547
REMARK  203  A    between atoms: _547  and  _548
REMARK  204  A    between atoms: _547  and  _550
REMARK  205  A    between atoms: _550  and  _551
REMARK  206  A    between atoms: _557  and  _559
REMARK  207  A    between atoms: _559  and  _560
REMARK  208  A    between atoms: _559  and  _562
REMARK  209  A    between atoms: _562  and  _563
REMARK  210  A    between atoms: _563  and  _564
REMARK  211  A    between atoms: _564  and  _565
REMARK  212  A    between atoms: _574  and  _576
REMARK  213  A    between atoms: _576  and  _577
REMARK  214  A    between atoms: _576  and  _579
REMARK  215  A    between atoms: _579  and  _580
REMARK  216  A    between atoms: _582  and  _584
REMARK  217  A    between atoms: _584  and  _585
REMARK  218  A    between atoms: _584  and  _587
REMARK  219  A    between atoms: _587  and  _588
REMARK  220  A    between atoms: _591  and  _593
REMARK  221  A    between atoms: _593  and  _594
REMARK  222  A    between atoms: _593  and  _596
REMARK  223  A    between atoms: _596  and  _597
REMARK  224  A    between atoms: _601  and  _602
REMARK  225  A    between atoms: _607  and  _609
REMARK  226  A    between atoms: _609  and  _610
REMARK  227  A    between atoms: _609  and  _612
REMARK  228  A    between atoms: _612  and  _613
REMARK  229  A    between atoms: _618  and  _620
REMARK  230  A    between atoms: _620  and  _621
REMARK  231  A    between atoms: _620  and  _623
REMARK  232  A    between atoms: _623  and  _624
REMARK  233  A    between atoms: _627  and  _629
REMARK  234  A    between atoms: _629  and  _630
REMARK  235  A    between atoms: _629  and  _632
REMARK  236  A    between atoms: _632  and  _633
REMARK  237  A    between atoms: _639  and  _641
REMARK  238  A    between atoms: _641  and  _642
REMARK  239  A    between atoms: _641  and  _644
REMARK  240  A    between atoms: _644  and  _645
REMARK  241  A    between atoms: _650  and  _652
REMARK  242  A    between atoms: _652  and  _653
REMARK  243  A    between atoms: _652  and  _655
REMARK  244  A    between atoms: _655  and  _656
REMARK  245  A    between atoms: _658  and  _660
REMARK  246  A    between atoms: _660  and  _661
REMARK  247  A    between atoms: _664  and  _666
REMARK  248  A    between atoms: _666  and  _667
REMARK  249  A    between atoms: _666  and  _669
REMARK  250  A    between atoms: _669  and  _670
REMARK  251  A    between atoms: _675  and  _677
REMARK  252  A    between atoms: _677  and  _678
REMARK  253  A    between atoms: _677  and  _680
REMARK  254  A    between atoms: _680  and  _681
REMARK  255  A    between atoms: _684  and  _686
REMARK  256  A    between atoms: _686  and  _687
REMARK  257  A    between atoms: _686  and  _689
REMARK  258  A    between atoms: _689  and  _690
REMARK  259  A    between atoms: _690  and  _691
REMARK  260  A    between atoms: _693  and  _695
REMARK  261  A    between atoms: _695  and  _696
REMARK  262  A    between atoms: _695  and  _698
REMARK  263  A    between atoms: _698  and  _699
REMARK  264  A    between atoms: _704  and  _705
REMARK  265  A    between atoms: _708  and  _709
REMARK  266  A    between atoms: _714  and  _716
REMARK  267  A    between atoms: _716  and  _717
REMARK  268  A    between atoms: _716  and  _719
REMARK  269  A    between atoms: _719  and  _720
REMARK                            x       y       z     vdW  Elec       q    Type
REMARK                         _______ _______ _______ _____ _____    ______ ____
ROOT
ATOM      1  O   HOH     1      24.437  37.959  29.485  0.00  0.00    +0.000 OA
ENDROOT
TORSDOF 0
REMARK  Name = ../refined-set-2016/1hfs/1hfs_pocket.pdb
REMARK  269 active torsions:
REMARK  status: ('A' for Active; 'I' for Inactive)
REMARK    1  A    between atoms: _1  and  _3
REMARK    2  A    between atoms: _3  and  _4
REMARK    3  A    between atoms: _3  and  _6
REMARK    4  A    between atoms: _6  and  _7
REMARK    5  A    between atoms: _11  and  ZN_724
REMARK    6  A    between atoms: _12  and  _14
REMARK    7  A    between atoms: _14  and  _15
REMARK    8  A    between atoms: _14  and  _17
REMARK    9  A    between atoms: _17  and  _18
REMARK   10  A    between atoms: _18  and  _20
REMARK   11  A    between atoms: _20  and  ZN_724
REMARK   12  A    between atoms: _21  and  _23
REMARK   13  A    between atoms: _23  and  _24
REMARK   14  A    between atoms: _23  and  _26
REMARK   15  A    between atoms: _26  and  _27
REMARK   16  A    between atoms: _33  and  _35
REMARK   17  A    between atoms: _35  and  _36
REMARK   18  A    between atoms: _35  and  _38
REMARK   19  A    between atoms: _38  and  _39
REMARK   20  A    between atoms: _44  and  _45
REMARK   21  A    between atoms: _48  and  _49
REMARK   22  A    between atoms: _54  and  _56
REMARK   23  A    between atoms: _56  and  _57
REMARK   24  A    between atoms: _56  and  _59
REMARK   25  A    between atoms: _59  and  _60
REMARK   26  A    between atoms: _66  and  _68
REMARK   27  A    between atoms: _68  and  _69
REMARK   28  A    between atoms: _68  and  _71
REMARK   29  A    between atoms: _71  and  _72
REMARK   30  A    between atoms: _76  and  _77
REMARK   31  A    between atoms: _82  and  _84
REMARK   32  A    between atoms: _89  and  _92
REMARK   33  A    between atoms: _92  and  _93
REMARK   34  A    between atoms: _100  and  _103
REMARK   35  A    between atoms: _101  and  _106
REMARK   36  A    between atoms: _106  and  _108
REMARK   37  A    between atoms: _108  and  _109
REMARK   38  A    between atoms: _108  and  _111
REMARK   39  A    between atoms: _111  and  _112
REMARK   40  A    between atoms: _115  and  _117
REMARK   41  A    between atoms: _117  and  _118
REMARK   42  A    between atoms: _121  and  _123
REMARK   43  A    between atoms: _123  and  _124
REMARK   44  A    between atoms: _123  and  _126
REMARK   45  A    between atoms: _126  and  _127
REMARK   46  A    between atoms: _131  and  ZN_724
REMARK   47  A    between atoms: _132  and  _134
REMARK   48  A    between atoms: _134  and  _135
REMARK   49  A    between atoms: _138  and  _140
REMARK   50  A    between atoms: _140  and  _141
REMARK   51  A    between atoms: _140  and  _143
REMARK   52  A    between atoms: _143  and  _144
REMARK   53  A    between atoms: _149  and  _150
REMARK   54  A    between atoms: _152  and  _154
REMARK   55  A    between atoms: _154  and  _155
REMARK   56  A    between atoms: _158  and  _160
REMARK   57  A    between atoms: _160  and  _161
REMARK   58  A    between atoms: _160  and  _163
REMARK   59  A    between atoms: _163  and  _164
REMARK   60  A    between atoms: _167  and  _169
REMARK   61  A    between atoms: _169  and  _170
REMARK   62  A    between atoms: _172  and  _174
REMARK   63  A    between atoms: _174  and  _175
REMARK   64  A    between atoms: _174  and  _177
REMARK   65  A    between atoms: _177  and  _178
REMARK   66  A    between atoms: _181  and  _183
REMARK   67  A    between atoms: _183  and  _184
REMARK   68  A    between atoms: _183  and  _186
REMARK   69  A    between atoms: _186  and  _187
REMARK   70  A    between atoms: _188  and  ZN_724
REMARK   71  A    between atoms: _192  and  _194
REMARK   72  A    between atoms: _194  and  _195
REMARK   73  A    between atoms: _194  and  _197
REMARK   74  A    between atoms: _197  and  _198
REMARK   75  A    between atoms: _201  and  _203
REMARK   76  A    between atoms: _203  and  _204
REMARK   77  A    between atoms: _203  and  _206
REMARK   78  A    between atoms: _206  and  _207
REMARK   79  A    between atoms: _207  and  _208
REMARK   80  A    between atoms: _211  and  _213
REMARK   81  A    between atoms: _213  and  _214
REMARK   82  A    between atoms: _213  and  _216
REMARK   83  A    between atoms: _216  and  _217
REMARK   84  A    between atoms: _227  and  _229
REMARK   85  A    between atoms: _229  and  _230
REMARK   86  A    between atoms: _232  and  _234
REMARK   87  A    between atoms: _234  and  _235
REMARK   88  A    between atoms: _234  and  _237
REMARK   89  A    between atoms: _237  and  _238
REMARK   90  A    between atoms: _241  and  _243
REMARK   91  A    between atoms: _243  and  _244
REMARK   92  A    between atoms: _243  and  _246
REMARK   93  A    between atoms: _246  and  _247
REMARK   94  A    between atoms: _252  and  _254
REMARK   95  A    between atoms: _254  and  _255
REMARK   96  A    between atoms: _254  and  _257
REMARK   97  A    between atoms: _257  and  _258
REMARK   98  A    between atoms: _261  and  _263
REMARK   99  A    between atoms: _263  and  _264
REMARK  100  A    between atoms: _263  and  _266
REMARK  101  A    between atoms: _266  and  _267
REMARK  102  A    between atoms: _273  and  _275
REMARK  103  A    between atoms: _275  and  _276
REMARK  104  A    between atoms: _275  and  _278
REMARK  105  A    between atoms: _278  and  _279
REMARK  106  A    between atoms: _282  and  _284
REMARK  107  A    between atoms: _284  and  _285
REMARK  108  A    between atoms: _284  and  _287
REMARK  109  A    between atoms: _290  and  _292
REMARK  110  A    between atoms: _292  and  _293
REMARK  111  A    between atoms: _296  and  _298
REMARK  112  A    between atoms: _298  and  _299
REMARK  113  A    between atoms: _302  and  _304
REMARK  114  A    between atoms: _315  and  _318
REMARK  115  A    between atoms: _318  and  _319
REMARK  116  A    between atoms: _319  and  _320
REMARK  117  A    between atoms: _325  and  _328
REMARK  118  A    between atoms: _328  and  _329
REMARK  119  A    between atoms: _339  and  _340
REMARK  120  A    between atoms: _348  and  _350
REMARK  121  A    between atoms: _350  and  _351
REMARK  122  A    between atoms: _350  and  _353
REMARK  123  A    between atoms: _353  and  _354
REMARK  124  A    between atoms: _356  and  _358
REMARK  125  A    between atoms: _358  and  _359
REMARK  126  A    between atoms: _358  and  _361
REMARK  127  A    between atoms: _361  and  _362
REMARK  128  A    between atoms: _366  and  ZN_723
REMARK  129  A    between atoms: _367  and  _369
REMARK  130  A    between atoms: _369  and  _370
REMARK  131  A    between atoms: _369  and  _372
REMARK  132  A    between atoms: _372  and  _373
REMARK  133  A    between atoms: _375  and  _377
REMARK  134  A    between atoms: _377  and  _378
REMARK  135  A    between atoms: _377  and  _380
REMARK  136  A    between atoms: _380  and  _381
REMARK  137  A    between atoms: _386  and  _388
REMARK  138  A    between atoms: _388  and  _389
REMARK  139  A    between atoms: _388  and  _391
REMARK  140  A    between atoms: _391  and  _392
REMARK  141  A    between atoms: _395  and  _397
REMARK  142  A    between atoms: _397  and  _398
REMARK  143  A    between atoms: _397  and  _400
REMARK  144  A    between atoms: _400  and  _401
REMARK  145  A    between atoms: _401  and  _402
REMARK  146  A    between atoms: _405  and  _407
REMARK  147  A    between atoms: _407  and  _408
REMARK  148  A    between atoms: _411  and  _413
REMARK  149  A    between atoms: _413  and  _414
REMARK  150  A    between atoms: _413  and  _416
REMARK  151  A    between atoms: _416  and  _417
REMARK  152  A    between atoms: _420  and  _422
REMARK  153  A    between atoms: _422  and  _423
REMARK  154  A    between atoms: _422  and  _425
REMARK  155  A    between atoms: _425  and  _426
REMARK  156  A    between atoms: _426  and  _427
REMARK  157  A    between atoms: _429  and  _431
REMARK  158  A    between atoms: _431  and  _432
REMARK  159  A    between atoms: _431  and  _434
REMARK  160  A    between atoms: _434  and  _435
REMARK  161  A    between atoms: _440  and  _441
REMARK  162  A    between atoms: _444  and  _445
REMARK  163  A    between atoms: _450  and  _452
REMARK  164  A    between atoms: _452  and  _453
REMARK  165  A    between atoms: _452  and  _455
REMARK  166  A    between atoms: _455  and  _456
REMARK  167  A    between atoms: _459  and  _461
REMARK  168  A    between atoms: _461  and  _462
REMARK  169  A    between atoms: _461  and  _464
REMARK  170  A    between atoms: _464  and  _465
REMARK  171  A    between atoms: _470  and  _471
REMARK  172  A    between atoms: _473  and  _475
REMARK  173  A    between atoms: _475  and  _476
REMARK  174  A    between atoms: _475  and  _478
REMARK  175  A    between atoms: _478  and  _479
REMARK  176  A    between atoms: _484  and  _486
REMARK  177  A    between atoms: _486  and  _487
REMARK  178  A    between atoms: _486  and  _489
REMARK  179  A    between atoms: _489  and  _490
REMARK  180  A    between atoms: _492  and  _494
REMARK  181  A    between atoms: _494  and  _495
REMARK  182  A    between atoms: _494  and  _497
REMARK  183  A    between atoms: _497  and  _498
REMARK  184  A    between atoms: _501  and  _503
REMARK  185  A    between atoms: _503  and  _504
REMARK  186  A    between atoms: _503  and  _506
REMARK  187  A    between atoms: _506  and  _507
REMARK  188  A    between atoms: _510  and  _512
REMARK  189  A    between atoms: _512  and  _513
REMARK  190  A    between atoms: _512  and  _515
REMARK  191  A    between atoms: _515  and  _516
REMARK  192  A    between atoms: _519  and  _521
REMARK  193  A    between atoms: _521  and  _522
REMARK  194  A    between atoms: _521  and  _524
REMARK  195  A    between atoms: _524  and  _525
REMARK  196  A    between atoms: _528  and  _530
REMARK  197  A    between atoms: _530  and  _531
REMARK  198  A    between atoms: _530  and  _533
REMARK  199  A    between atoms: _533  and  _534
REMARK  200  A    between atoms: _534  and  _535
REMARK  201  A    between atoms: _535  and  _536
REMARK  202  A    between atoms: _545  and  _547
REMARK  203  A    between atoms: _547  and  _548
REMARK  204  A    between atoms: _547  and  _550
REMARK  205  A    between atoms: _550  and  _551
REMARK  206  A    between atoms: _557  and  _559
REMARK  207  A    between atoms: _559  and  _560
REMARK  208  A    between atoms: _559  and  _562
REMARK  209  A    between atoms: _562  and  _563
REMARK  210  A    between atoms: _563  and  _564
REMARK  211  A    between atoms: _564  and  _565
REMARK  212  A    between atoms: _574  and  _576
REMARK  213  A    between atoms: _576  and  _577
REMARK  214  A    between atoms: _576  and  _579
REMARK  215  A    between atoms: _579  and  _580
REMARK  216  A    between atoms: _582  and  _584
REMARK  217  A    between atoms: _584  and  _585
REMARK  218  A    between atoms: _584  and  _587
REMARK  219  A    between atoms: _587  and  _588
REMARK  220  A    between atoms: _591  and  _593
REMARK  221  A    between atoms: _593  and  _594
REMARK  222  A    between atoms: _593  and  _596
REMARK  223  A    between atoms: _596  and  _597
REMARK  224  A    between atoms: _601  and  _602
REMARK  225  A    between atoms: _607  and  _609
REMARK  226  A    between atoms: _609  and  _610
REMARK  227  A    between atoms: _609  and  _612
REMARK  228  A    between atoms: _612  and  _613
REMARK  229  A    between atoms: _618  and  _620
REMARK  230  A    between atoms: _620  and  _621
REMARK  231  A    between atoms: _620  and  _623
REMARK  232  A    between atoms: _623  and  _624
REMARK  233  A    between atoms: _627  and  _629
REMARK  234  A    between atoms: _629  and  _630
REMARK  235  A    between atoms: _629  and  _632
REMARK  236  A    between atoms: _632  and  _633
REMARK  237  A    between atoms: _639  and  _641
REMARK  238  A    between atoms: _641  and  _642
REMARK  239  A    between atoms: _641  and  _644
REMARK  240  A    between atoms: _644  and  _645
REMARK  241  A    between atoms: _650  and  _652
REMARK  242  A    between atoms: _652  and  _653
REMARK  243  A    between atoms: _652  and  _655
REMARK  244  A    between atoms: _655  and  _656
REMARK  245  A    between atoms: _658  and  _660
REMARK  246  A    between atoms: _660  and  _661
REMARK  247  A    between atoms: _664  and  _666
REMARK  248  A    between atoms: _666  and  _667
REMARK  249  A    between atoms: _666  and  _669
REMARK  250  A    between atoms: _669  and  _670
REMARK  251  A    between atoms: _675  and  _677
REMARK  252  A    between atoms: _677  and  _678
REMARK  253  A    between atoms: _677  and  _680
REMARK  254  A    between atoms: _680  and  _681
REMARK  255  A    between atoms: _684  and  _686
REMARK  256  A    between atoms: _686  and  _687
REMARK  257  A    between atoms: _686  and  _689
REMARK  258  A    between atoms: _689  and  _690
REMARK  259  A    between atoms: _690  and  _691
REMARK  260  A    between atoms: _693  and  _695
REMARK  261  A    between atoms: _695  and  _696
REMARK  262  A    between atoms: _695  and  _698
REMARK  263  A    between atoms: _698  and  _699
REMARK  264  A    between atoms: _704  and  _705
REMARK  265  A    between atoms: _708  and  _709
REMARK  266  A    between atoms: _714  and  _716
REMARK  267  A    between atoms: _716  and  _717
REMARK  268  A    between atoms: _716  and  _719
REMARK  269  A    between atoms: _719  and  _720
REMARK                            x       y       z     vdW  Elec       q    Type
REMARK                         _______ _______ _______ _____ _____    ______ ____
ROOT
ATOM      1  O   HOH     1      24.993  38.502  26.651  0.00  0.00    +0.000 OA
ENDROOT
TORSDOF 0
REMARK  Name = ../refined-set-2016/1hfs/1hfs_pocket.pdb
REMARK  269 active torsions:
REMARK  status: ('A' for Active; 'I' for Inactive)
REMARK    1  A    between atoms: _1  and  _3
REMARK    2  A    between atoms: _3  and  _4
REMARK    3  A    between atoms: _3  and  _6
REMARK    4  A    between atoms: _6  and  _7
REMARK    5  A    between atoms: _11  and  ZN_724
REMARK    6  A    between atoms: _12  and  _14
REMARK    7  A    between atoms: _14  and  _15
REMARK    8  A    between atoms: _14  and  _17
REMARK    9  A    between atoms: _17  and  _18
REMARK   10  A    between atoms: _18  and  _20
REMARK   11  A    between atoms: _20  and  ZN_724
REMARK   12  A    between atoms: _21  and  _23
REMARK   13  A    between atoms: _23  and  _24
REMARK   14  A    between atoms: _23  and  _26
REMARK   15  A    between atoms: _26  and  _27
REMARK   16  A    between atoms: _33  and  _35
REMARK   17  A    between atoms: _35  and  _36
REMARK   18  A    between atoms: _35  and  _38
REMARK   19  A    between atoms: _38  and  _39
REMARK   20  A    between atoms: _44  and  _45
REMARK   21  A    between atoms: _48  and  _49
REMARK   22  A    between atoms: _54  and  _56
REMARK   23  A    between atoms: _56  and  _57
REMARK   24  A    between atoms: _56  and  _59
REMARK   25  A    between atoms: _59  and  _60
REMARK   26  A    between atoms: _66  and  _68
REMARK   27  A    between atoms: _68  and  _69
REMARK   28  A    between atoms: _68  and  _71
REMARK   29  A    between atoms: _71  and  _72
REMARK   30  A    between atoms: _76  and  _77
REMARK   31  A    between atoms: _82  and  _84
REMARK   32  A    between atoms: _89  and  _92
REMARK   33  A    between atoms: _92  and  _93
REMARK   34  A    between atoms: _100  and  _103
REMARK   35  A    between atoms: _101  and  _106
REMARK   36  A    between atoms: _106  and  _108
REMARK   37  A    between atoms: _108  and  _109
REMARK   38  A    between atoms: _108  and  _111
REMARK   39  A    between atoms: _111  and  _112
REMARK   40  A    between atoms: _115  and  _117
REMARK   41  A    between atoms: _117  and  _118
REMARK   42  A    between atoms: _121  and  _123
REMARK   43  A    between atoms: _123  and  _124
REMARK   44  A    between atoms: _123  and  _126
REMARK   45  A    between atoms: _126  and  _127
REMARK   46  A    between atoms: _131  and  ZN_724
REMARK   47  A    between atoms: _132  and  _134
REMARK   48  A    between atoms: _134  and  _135
REMARK   49  A    between atoms: _138  and  _140
REMARK   50  A    between atoms: _140  and  _141
REMARK   51  A    between atoms: _140  and  _143
REMARK   52  A    between atoms: _143  and  _144
REMARK   53  A    between atoms: _149  and  _150
REMARK   54  A    between atoms: _152  and  _154
REMARK   55  A    between atoms: _154  and  _155
REMARK   56  A    between atoms: _158  and  _160
REMARK   57  A    between atoms: _160  and  _161
REMARK   58  A    between atoms: _160  and  _163
REMARK   59  A    between atoms: _163  and  _164
REMARK   60  A    between atoms: _167  and  _169
REMARK   61  A    between atoms: _169  and  _170
REMARK   62  A    between atoms: _172  and  _174
REMARK   63  A    between atoms: _174  and  _175
REMARK   64  A    between atoms: _174  and  _177
REMARK   65  A    between atoms: _177  and  _178
REMARK   66  A    between atoms: _181  and  _183
REMARK   67  A    between atoms: _183  and  _184
REMARK   68  A    between atoms: _183  and  _186
REMARK   69  A    between atoms: _186  and  _187
REMARK   70  A    between atoms: _188  and  ZN_724
REMARK   71  A    between atoms: _192  and  _194
REMARK   72  A    between atoms: _194  and  _195
REMARK   73  A    between atoms: _194  and  _197
REMARK   74  A    between atoms: _197  and  _198
REMARK   75  A    between atoms: _201  and  _203
REMARK   76  A    between atoms: _203  and  _204
REMARK   77  A    between atoms: _203  and  _206
REMARK   78  A    between atoms: _206  and  _207
REMARK   79  A    between atoms: _207  and  _208
REMARK   80  A    between atoms: _211  and  _213
REMARK   81  A    between atoms: _213  and  _214
REMARK   82  A    between atoms: _213  and  _216
REMARK   83  A    between atoms: _216  and  _217
REMARK   84  A    between atoms: _227  and  _229
REMARK   85  A    between atoms: _229  and  _230
REMARK   86  A    between atoms: _232  and  _234
REMARK   87  A    between atoms: _234  and  _235
REMARK   88  A    between atoms: _234  and  _237
REMARK   89  A    between atoms: _237  and  _238
REMARK   90  A    between atoms: _241  and  _243
REMARK   91  A    between atoms: _243  and  _244
REMARK   92  A    between atoms: _243  and  _246
REMARK   93  A    between atoms: _246  and  _247
REMARK   94  A    between atoms: _252  and  _254
REMARK   95  A    between atoms: _254  and  _255
REMARK   96  A    between atoms: _254  and  _257
REMARK   97  A    between atoms: _257  and  _258
REMARK   98  A    between atoms: _261  and  _263
REMARK   99  A    between atoms: _263  and  _264
REMARK  100  A    between atoms: _263  and  _266
REMARK  101  A    between atoms: _266  and  _267
REMARK  102  A    between atoms: _273  and  _275
REMARK  103  A    between atoms: _275  and  _276
REMARK  104  A    between atoms: _275  and  _278
REMARK  105  A    between atoms: _278  and  _279
REMARK  106  A    between atoms: _282  and  _284
REMARK  107  A    between atoms: _284  and  _285
REMARK  108  A    between atoms: _284  and  _287
REMARK  109  A    between atoms: _290  and  _292
REMARK  110  A    between atoms: _292  and  _293
REMARK  111  A    between atoms: _296  and  _298
REMARK  112  A    between atoms: _298  and  _299
REMARK  113  A    between atoms: _302  and  _304
REMARK  114  A    between atoms: _315  and  _318
REMARK  115  A    between atoms: _318  and  _319
REMARK  116  A    between atoms: _319  and  _320
REMARK  117  A    between atoms: _325  and  _328
REMARK  118  A    between atoms: _328  and  _329
REMARK  119  A    between atoms: _339  and  _340
REMARK  120  A    between atoms: _348  and  _350
REMARK  121  A    between atoms: _350  and  _351
REMARK  122  A    between atoms: _350  and  _353
REMARK  123  A    between atoms: _353  and  _354
REMARK  124  A    between atoms: _356  and  _358
REMARK  125  A    between atoms: _358  and  _359
REMARK  126  A    between atoms: _358  and  _361
REMARK  127  A    between atoms: _361  and  _362
REMARK  128  A    between atoms: _366  and  ZN_723
REMARK  129  A    between atoms: _367  and  _369
REMARK  130  A    between atoms: _369  and  _370
REMARK  131  A    between atoms: _369  and  _372
REMARK  132  A    between atoms: _372  and  _373
REMARK  133  A    between atoms: _375  and  _377
REMARK  134  A    between atoms: _377  and  _378
REMARK  135  A    between atoms: _377  and  _380
REMARK  136  A    between atoms: _380  and  _381
REMARK  137  A    between atoms: _386  and  _388
REMARK  138  A    between atoms: _388  and  _389
REMARK  139  A    between atoms: _388  and  _391
REMARK  140  A    between atoms: _391  and  _392
REMARK  141  A    between atoms: _395  and  _397
REMARK  142  A    between atoms: _397  and  _398
REMARK  143  A    between atoms: _397  and  _400
REMARK  144  A    between atoms: _400  and  _401
REMARK  145  A    between atoms: _401  and  _402
REMARK  146  A    between atoms: _405  and  _407
REMARK  147  A    between atoms: _407  and  _408
REMARK  148  A    between atoms: _411  and  _413
REMARK  149  A    between atoms: _413  and  _414
REMARK  150  A    between atoms: _413  and  _416
REMARK  151  A    between atoms: _416  and  _417
REMARK  152  A    between atoms: _420  and  _422
REMARK  153  A    between atoms: _422  and  _423
REMARK  154  A    between atoms: _422  and  _425
REMARK  155  A    between atoms: _425  and  _426
REMARK  156  A    between atoms: _426  and  _427
REMARK  157  A    between atoms: _429  and  _431
REMARK  158  A    between atoms: _431  and  _432
REMARK  159  A    between atoms: _431  and  _434
REMARK  160  A    between atoms: _434  and  _435
REMARK  161  A    between atoms: _440  and  _441
REMARK  162  A    between atoms: _444  and  _445
REMARK  163  A    between atoms: _450  and  _452
REMARK  164  A    between atoms: _452  and  _453
REMARK  165  A    between atoms: _452  and  _455
REMARK  166  A    between atoms: _455  and  _456
REMARK  167  A    between atoms: _459  and  _461
REMARK  168  A    between atoms: _461  and  _462
REMARK  169  A    between atoms: _461  and  _464
REMARK  170  A    between atoms: _464  and  _465
REMARK  171  A    between atoms: _470  and  _471
REMARK  172  A    between atoms: _473  and  _475
REMARK  173  A    between atoms: _475  and  _476
REMARK  174  A    between atoms: _475  and  _478
REMARK  175  A    between atoms: _478  and  _479
REMARK  176  A    between atoms: _484  and  _486
REMARK  177  A    between atoms: _486  and  _487
REMARK  178  A    between atoms: _486  and  _489
REMARK  179  A    between atoms: _489  and  _490
REMARK  180  A    between atoms: _492  and  _494
REMARK  181  A    between atoms: _494  and  _495
REMARK  182  A    between atoms: _494  and  _497
REMARK  183  A    between atoms: _497  and  _498
REMARK  184  A    between atoms: _501  and  _503
REMARK  185  A    between atoms: _503  and  _504
REMARK  186  A    between atoms: _503  and  _506
REMARK  187  A    between atoms: _506  and  _507
REMARK  188  A    between atoms: _510  and  _512
REMARK  189  A    between atoms: _512  and  _513
REMARK  190  A    between atoms: _512  and  _515
REMARK  191  A    between atoms: _515  and  _516
REMARK  192  A    between atoms: _519  and  _521
REMARK  193  A    between atoms: _521  and  _522
REMARK  194  A    between atoms: _521  and  _524
REMARK  195  A    between atoms: _524  and  _525
REMARK  196  A    between atoms: _528  and  _530
REMARK  197  A    between atoms: _530  and  _531
REMARK  198  A    between atoms: _530  and  _533
REMARK  199  A    between atoms: _533  and  _534
REMARK  200  A    between atoms: _534  and  _535
REMARK  201  A    between atoms: _535  and  _536
REMARK  202  A    between atoms: _545  and  _547
REMARK  203  A    between atoms: _547  and  _548
REMARK  204  A    between atoms: _547  and  _550
REMARK  205  A    between atoms: _550  and  _551
REMARK  206  A    between atoms: _557  and  _559
REMARK  207  A    between atoms: _559  and  _560
REMARK  208  A    between atoms: _559  and  _562
REMARK  209  A    between atoms: _562  and  _563
REMARK  210  A    between atoms: _563  and  _564
REMARK  211  A    between atoms: _564  and  _565
REMARK  212  A    between atoms: _574  and  _576
REMARK  213  A    between atoms: _576  and  _577
REMARK  214  A    between atoms: _576  and  _579
REMARK  215  A    between atoms: _579  and  _580
REMARK  216  A    between atoms: _582  and  _584
REMARK  217  A    between atoms: _584  and  _585
REMARK  218  A    between atoms: _584  and  _587
REMARK  219  A    between atoms: _587  and  _588
REMARK  220  A    between atoms: _591  and  _593
REMARK  221  A    between atoms: _593  and  _594
REMARK  222  A    between atoms: _593  and  _596
REMARK  223  A    between atoms: _596  and  _597
REMARK  224  A    between atoms: _601  and  _602
REMARK  225  A    between atoms: _607  and  _609
REMARK  226  A    between atoms: _609  and  _610
REMARK  227  A    between atoms: _609  and  _612
REMARK  228  A    between atoms: _612  and  _613
REMARK  229  A    between atoms: _618  and  _620
REMARK  230  A    between atoms: _620  and  _621
REMARK  231  A    between atoms: _620  and  _623
REMARK  232  A    between atoms: _623  and  _624
REMARK  233  A    between atoms: _627  and  _629
REMARK  234  A    between atoms: _629  and  _630
REMARK  235  A    between atoms: _629  and  _632
REMARK  236  A    between atoms: _632  and  _633
REMARK  237  A    between atoms: _639  and  _641
REMARK  238  A    between atoms: _641  and  _642
REMARK  239  A    between atoms: _641  and  _644
REMARK  240  A    between atoms: _644  and  _645
REMARK  241  A    between atoms: _650  and  _652
REMARK  242  A    between atoms: _652  and  _653
REMARK  243  A    between atoms: _652  and  _655
REMARK  244  A    between atoms: _655  and  _656
REMARK  245  A    between atoms: _658  and  _660
REMARK  246  A    between atoms: _660  and  _661
REMARK  247  A    between atoms: _664  and  _666
REMARK  248  A    between atoms: _666  and  _667
REMARK  249  A    between atoms: _666  and  _669
REMARK  250  A    between atoms: _669  and  _670
REMARK  251  A    between atoms: _675  and  _677
REMARK  252  A    between atoms: _677  and  _678
REMARK  253  A    between atoms: _677  and  _680
REMARK  254  A    between atoms: _680  and  _681
REMARK  255  A    between atoms: _684  and  _686
REMARK  256  A    between atoms: _686  and  _687
REMARK  257  A    between atoms: _686  and  _689
REMARK  258  A    between atoms: _689  and  _690
REMARK  259  A    between atoms: _690  and  _691
REMARK  260  A    between atoms: _693  and  _695
REMARK  261  A    between atoms: _695  and  _696
REMARK  262  A    between atoms: _695  and  _698
REMARK  263  A    between atoms: _698  and  _699
REMARK  264  A    between atoms: _704  and  _705
REMARK  265  A    between atoms: _708  and  _709
REMARK  266  A    between atoms: _714  and  _716
REMARK  267  A    between atoms: _716  and  _717
REMARK  268  A    between atoms: _716  and  _719
REMARK  269  A    between atoms: _719  and  _720
REMARK                            x       y       z     vdW  Elec       q    Type
REMARK                         _______ _______ _______ _____ _____    ______ ____
ROOT
ATOM      1  O   HOH     1      34.569  39.483  25.620  0.00  0.00    +0.000 OA
ENDROOT
TORSDOF 0
REMARK  Name = ../refined-set-2016/1hfs/1hfs_pocket.pdb
REMARK  269 active torsions:
REMARK  status: ('A' for Active; 'I' for Inactive)
REMARK    1  A    between atoms: _1  and  _3
REMARK    2  A    between atoms: _3  and  _4
REMARK    3  A    between atoms: _3  and  _6
REMARK    4  A    between atoms: _6  and  _7
REMARK    5  A    between atoms: _11  and  ZN_724
REMARK    6  A    between atoms: _12  and  _14
REMARK    7  A    between atoms: _14  and  _15
REMARK    8  A    between atoms: _14  and  _17
REMARK    9  A    between atoms: _17  and  _18
REMARK   10  A    between atoms: _18  and  _20
REMARK   11  A    between atoms: _20  and  ZN_724
REMARK   12  A    between atoms: _21  and  _23
REMARK   13  A    between atoms: _23  and  _24
REMARK   14  A    between atoms: _23  and  _26
REMARK   15  A    between atoms: _26  and  _27
REMARK   16  A    between atoms: _33  and  _35
REMARK   17  A    between atoms: _35  and  _36
REMARK   18  A    between atoms: _35  and  _38
REMARK   19  A    between atoms: _38  and  _39
REMARK   20  A    between atoms: _44  and  _45
REMARK   21  A    between atoms: _48  and  _49
REMARK   22  A    between atoms: _54  and  _56
REMARK   23  A    between atoms: _56  and  _57
REMARK   24  A    between atoms: _56  and  _59
REMARK   25  A    between atoms: _59  and  _60
REMARK   26  A    between atoms: _66  and  _68
REMARK   27  A    between atoms: _68  and  _69
REMARK   28  A    between atoms: _68  and  _71
REMARK   29  A    between atoms: _71  and  _72
REMARK   30  A    between atoms: _76  and  _77
REMARK   31  A    between atoms: _82  and  _84
REMARK   32  A    between atoms: _89  and  _92
REMARK   33  A    between atoms: _92  and  _93
REMARK   34  A    between atoms: _100  and  _103
REMARK   35  A    between atoms: _101  and  _106
REMARK   36  A    between atoms: _106  and  _108
REMARK   37  A    between atoms: _108  and  _109
REMARK   38  A    between atoms: _108  and  _111
REMARK   39  A    between atoms: _111  and  _112
REMARK   40  A    between atoms: _115  and  _117
REMARK   41  A    between atoms: _117  and  _118
REMARK   42  A    between atoms: _121  and  _123
REMARK   43  A    between atoms: _123  and  _124
REMARK   44  A    between atoms: _123  and  _126
REMARK   45  A    between atoms: _126  and  _127
REMARK   46  A    between atoms: _131  and  ZN_724
REMARK   47  A    between atoms: _132  and  _134
REMARK   48  A    between atoms: _134  and  _135
REMARK   49  A    between atoms: _138  and  _140
REMARK   50  A    between atoms: _140  and  _141
REMARK   51  A    between atoms: _140  and  _143
REMARK   52  A    between atoms: _143  and  _144
REMARK   53  A    between atoms: _149  and  _150
REMARK   54  A    between atoms: _152  and  _154
REMARK   55  A    between atoms: _154  and  _155
REMARK   56  A    between atoms: _158  and  _160
REMARK   57  A    between atoms: _160  and  _161
REMARK   58  A    between atoms: _160  and  _163
REMARK   59  A    between atoms: _163  and  _164
REMARK   60  A    between atoms: _167  and  _169
REMARK   61  A    between atoms: _169  and  _170
REMARK   62  A    between atoms: _172  and  _174
REMARK   63  A    between atoms: _174  and  _175
REMARK   64  A    between atoms: _174  and  _177
REMARK   65  A    between atoms: _177  and  _178
REMARK   66  A    between atoms: _181  and  _183
REMARK   67  A    between atoms: _183  and  _184
REMARK   68  A    between atoms: _183  and  _186
REMARK   69  A    between atoms: _186  and  _187
REMARK   70  A    between atoms: _188  and  ZN_724
REMARK   71  A    between atoms: _192  and  _194
REMARK   72  A    between atoms: _194  and  _195
REMARK   73  A    between atoms: _194  and  _197
REMARK   74  A    between atoms: _197  and  _198
REMARK   75  A    between atoms: _201  and  _203
REMARK   76  A    between atoms: _203  and  _204
REMARK   77  A    between atoms: _203  and  _206
REMARK   78  A    between atoms: _206  and  _207
REMARK   79  A    between atoms: _207  and  _208
REMARK   80  A    between atoms: _211  and  _213
REMARK   81  A    between atoms: _213  and  _214
REMARK   82  A    between atoms: _213  and  _216
REMARK   83  A    between atoms: _216  and  _217
REMARK   84  A    between atoms: _227  and  _229
REMARK   85  A    between atoms: _229  and  _230
REMARK   86  A    between atoms: _232  and  _234
REMARK   87  A    between atoms: _234  and  _235
REMARK   88  A    between atoms: _234  and  _237
REMARK   89  A    between atoms: _237  and  _238
REMARK   90  A    between atoms: _241  and  _243
REMARK   91  A    between atoms: _243  and  _244
REMARK   92  A    between atoms: _243  and  _246
REMARK   93  A    between atoms: _246  and  _247
REMARK   94  A    between atoms: _252  and  _254
REMARK   95  A    between atoms: _254  and  _255
REMARK   96  A    between atoms: _254  and  _257
REMARK   97  A    between atoms: _257  and  _258
REMARK   98  A    between atoms: _261  and  _263
REMARK   99  A    between atoms: _263  and  _264
REMARK  100  A    between atoms: _263  and  _266
REMARK  101  A    between atoms: _266  and  _267
REMARK  102  A    between atoms: _273  and  _275
REMARK  103  A    between atoms: _275  and  _276
REMARK  104  A    between atoms: _275  and  _278
REMARK  105  A    between atoms: _278  and  _279
REMARK  106  A    between atoms: _282  and  _284
REMARK  107  A    between atoms: _284  and  _285
REMARK  108  A    between atoms: _284  and  _287
REMARK  109  A    between atoms: _290  and  _292
REMARK  110  A    between atoms: _292  and  _293
REMARK  111  A    between atoms: _296  and  _298
REMARK  112  A    between atoms: _298  and  _299
REMARK  113  A    between atoms: _302  and  _304
REMARK  114  A    between atoms: _315  and  _318
REMARK  115  A    between atoms: _318  and  _319
REMARK  116  A    between atoms: _319  and  _320
REMARK  117  A    between atoms: _325  and  _328
REMARK  118  A    between atoms: _328  and  _329
REMARK  119  A    between atoms: _339  and  _340
REMARK  120  A    between atoms: _348  and  _350
REMARK  121  A    between atoms: _350  and  _351
REMARK  122  A    between atoms: _350  and  _353
REMARK  123  A    between atoms: _353  and  _354
REMARK  124  A    between atoms: _356  and  _358
REMARK  125  A    between atoms: _358  and  _359
REMARK  126  A    between atoms: _358  and  _361
REMARK  127  A    between atoms: _361  and  _362
REMARK  128  A    between atoms: _366  and  ZN_723
REMARK  129  A    between atoms: _367  and  _369
REMARK  130  A    between atoms: _369  and  _370
REMARK  131  A    between atoms: _369  and  _372
REMARK  132  A    between atoms: _372  and  _373
REMARK  133  A    between atoms: _375  and  _377
REMARK  134  A    between atoms: _377  and  _378
REMARK  135  A    between atoms: _377  and  _380
REMARK  136  A    between atoms: _380  and  _381
REMARK  137  A    between atoms: _386  and  _388
REMARK  138  A    between atoms: _388  and  _389
REMARK  139  A    between atoms: _388  and  _391
REMARK  140  A    between atoms: _391  and  _392
REMARK  141  A    between atoms: _395  and  _397
REMARK  142  A    between atoms: _397  and  _398
REMARK  143  A    between atoms: _397  and  _400
REMARK  144  A    between atoms: _400  and  _401
REMARK  145  A    between atoms: _401  and  _402
REMARK  146  A    between atoms: _405  and  _407
REMARK  147  A    between atoms: _407  and  _408
REMARK  148  A    between atoms: _411  and  _413
REMARK  149  A    between atoms: _413  and  _414
REMARK  150  A    between atoms: _413  and  _416
REMARK  151  A    between atoms: _416  and  _417
REMARK  152  A    between atoms: _420  and  _422
REMARK  153  A    between atoms: _422  and  _423
REMARK  154  A    between atoms: _422  and  _425
REMARK  155  A    between atoms: _425  and  _426
REMARK  156  A    between atoms: _426  and  _427
REMARK  157  A    between atoms: _429  and  _431
REMARK  158  A    between atoms: _431  and  _432
REMARK  159  A    between atoms: _431  and  _434
REMARK  160  A    between atoms: _434  and  _435
REMARK  161  A    between atoms: _440  and  _441
REMARK  162  A    between atoms: _444  and  _445
REMARK  163  A    between atoms: _450  and  _452
REMARK  164  A    between atoms: _452  and  _453
REMARK  165  A    between atoms: _452  and  _455
REMARK  166  A    between atoms: _455  and  _456
REMARK  167  A    between atoms: _459  and  _461
REMARK  168  A    between atoms: _461  and  _462
REMARK  169  A    between atoms: _461  and  _464
REMARK  170  A    between atoms: _464  and  _465
REMARK  171  A    between atoms: _470  and  _471
REMARK  172  A    between atoms: _473  and  _475
REMARK  173  A    between atoms: _475  and  _476
REMARK  174  A    between atoms: _475  and  _478
REMARK  175  A    between atoms: _478  and  _479
REMARK  176  A    between atoms: _484  and  _486
REMARK  177  A    between atoms: _486  and  _487
REMARK  178  A    between atoms: _486  and  _489
REMARK  179  A    between atoms: _489  and  _490
REMARK  180  A    between atoms: _492  and  _494
REMARK  181  A    between atoms: _494  and  _495
REMARK  182  A    between atoms: _494  and  _497
REMARK  183  A    between atoms: _497  and  _498
REMARK  184  A    between atoms: _501  and  _503
REMARK  185  A    between atoms: _503  and  _504
REMARK  186  A    between atoms: _503  and  _506
REMARK  187  A    between atoms: _506  and  _507
REMARK  188  A    between atoms: _510  and  _512
REMARK  189  A    between atoms: _512  and  _513
REMARK  190  A    between atoms: _512  and  _515
REMARK  191  A    between atoms: _515  and  _516
REMARK  192  A    between atoms: _519  and  _521
REMARK  193  A    between atoms: _521  and  _522
REMARK  194  A    between atoms: _521  and  _524
REMARK  195  A    between atoms: _524  and  _525
REMARK  196  A    between atoms: _528  and  _530
REMARK  197  A    between atoms: _530  and  _531
REMARK  198  A    between atoms: _530  and  _533
REMARK  199  A    between atoms: _533  and  _534
REMARK  200  A    between atoms: _534  and  _535
REMARK  201  A    between atoms: _535  and  _536
REMARK  202  A    between atoms: _545  and  _547
REMARK  203  A    between atoms: _547  and  _548
REMARK  204  A    between atoms: _547  and  _550
REMARK  205  A    between atoms: _550  and  _551
REMARK  206  A    between atoms: _557  and  _559
REMARK  207  A    between atoms: _559  and  _560
REMARK  208  A    between atoms: _559  and  _562
REMARK  209  A    between atoms: _562  and  _563
REMARK  210  A    between atoms: _563  and  _564
REMARK  211  A    between atoms: _564  and  _565
REMARK  212  A    between atoms: _574  and  _576
REMARK  213  A    between atoms: _576  and  _577
REMARK  214  A    between atoms: _576  and  _579
REMARK  215  A    between atoms: _579  and  _580
REMARK  216  A    between atoms: _582  and  _584
REMARK  217  A    between atoms: _584  and  _585
REMARK  218  A    between atoms: _584  and  _587
REMARK  219  A    between atoms: _587  and  _588
REMARK  220  A    between atoms: _591  and  _593
REMARK  221  A    between atoms: _593  and  _594
REMARK  222  A    between atoms: _593  and  _596
REMARK  223  A    between atoms: _596  and  _597
REMARK  224  A    between atoms: _601  and  _602
REMARK  225  A    between atoms: _607  and  _609
REMARK  226  A    between atoms: _609  and  _610
REMARK  227  A    between atoms: _609  and  _612
REMARK  228  A    between atoms: _612  and  _613
REMARK  229  A    between atoms: _618  and  _620
REMARK  230  A    between atoms: _620  and  _621
REMARK  231  A    between atoms: _620  and  _623
REMARK  232  A    between atoms: _623  and  _624
REMARK  233  A    between atoms: _627  and  _629
REMARK  234  A    between atoms: _629  and  _630
REMARK  235  A    between atoms: _629  and  _632
REMARK  236  A    between atoms: _632  and  _633
REMARK  237  A    between atoms: _639  and  _641
REMARK  238  A    between atoms: _641  and  _642
REMARK  239  A    between atoms: _641  and  _644
REMARK  240  A    between atoms: _644  and  _645
REMARK  241  A    between atoms: _650  and  _652
REMARK  242  A    between atoms: _652  and  _653
REMARK  243  A    between atoms: _652  and  _655
REMARK  244  A    between atoms: _655  and  _656
REMARK  245  A    between atoms: _658  and  _660
REMARK  246  A    between atoms: _660  and  _661
REMARK  247  A    between atoms: _664  and  _666
REMARK  248  A    between atoms: _666  and  _667
REMARK  249  A    between atoms: _666  and  _669
REMARK  250  A    between atoms: _669  and  _670
REMARK  251  A    between atoms: _675  and  _677
REMARK  252  A    between atoms: _677  and  _678
REMARK  253  A    between atoms: _677  and  _680
REMARK  254  A    between atoms: _680  and  _681
REMARK  255  A    between atoms: _684  and  _686
REMARK  256  A    between atoms: _686  and  _687
REMARK  257  A    between atoms: _686  and  _689
REMARK  258  A    between atoms: _689  and  _690
REMARK  259  A    between atoms: _690  and  _691
REMARK  260  A    between atoms: _693  and  _695
REMARK  261  A    between atoms: _695  and  _696
REMARK  262  A    between atoms: _695  and  _698
REMARK  263  A    between atoms: _698  and  _699
REMARK  264  A    between atoms: _704  and  _705
REMARK  265  A    between atoms: _708  and  _709
REMARK  266  A    between atoms: _714  and  _716
REMARK  267  A    between atoms: _716  and  _717
REMARK  268  A    between atoms: _716  and  _719
REMARK  269  A    between atoms: _719  and  _720
REMARK                            x       y       z     vdW  Elec       q    Type
REMARK                         _______ _______ _______ _____ _____    ______ ____
ROOT
ATOM      1  O   HOH     1      27.623  38.940  26.405  0.00  0.00    +0.000 OA
ENDROOT
TORSDOF 0
REMARK  Name = ../refined-set-2016/1hfs/1hfs_pocket.pdb
REMARK  269 active torsions:
REMARK  status: ('A' for Active; 'I' for Inactive)
REMARK    1  A    between atoms: _1  and  _3
REMARK    2  A    between atoms: _3  and  _4
REMARK    3  A    between atoms: _3  and  _6
REMARK    4  A    between atoms: _6  and  _7
REMARK    5  A    between atoms: _11  and  ZN_724
REMARK    6  A    between atoms: _12  and  _14
REMARK    7  A    between atoms: _14  and  _15
REMARK    8  A    between atoms: _14  and  _17
REMARK    9  A    between atoms: _17  and  _18
REMARK   10  A    between atoms: _18  and  _20
REMARK   11  A    between atoms: _20  and  ZN_724
REMARK   12  A    between atoms: _21  and  _23
REMARK   13  A    between atoms: _23  and  _24
REMARK   14  A    between atoms: _23  and  _26
REMARK   15  A    between atoms: _26  and  _27
REMARK   16  A    between atoms: _33  and  _35
REMARK   17  A    between atoms: _35  and  _36
REMARK   18  A    between atoms: _35  and  _38
REMARK   19  A    between atoms: _38  and  _39
REMARK   20  A    between atoms: _44  and  _45
REMARK   21  A    between atoms: _48  and  _49
REMARK   22  A    between atoms: _54  and  _56
REMARK   23  A    between atoms: _56  and  _57
REMARK   24  A    between atoms: _56  and  _59
REMARK   25  A    between atoms: _59  and  _60
REMARK   26  A    between atoms: _66  and  _68
REMARK   27  A    between atoms: _68  and  _69
REMARK   28  A    between atoms: _68  and  _71
REMARK   29  A    between atoms: _71  and  _72
REMARK   30  A    between atoms: _76  and  _77
REMARK   31  A    between atoms: _82  and  _84
REMARK   32  A    between atoms: _89  and  _92
REMARK   33  A    between atoms: _92  and  _93
REMARK   34  A    between atoms: _100  and  _103
REMARK   35  A    between atoms: _101  and  _106
REMARK   36  A    between atoms: _106  and  _108
REMARK   37  A    between atoms: _108  and  _109
REMARK   38  A    between atoms: _108  and  _111
REMARK   39  A    between atoms: _111  and  _112
REMARK   40  A    between atoms: _115  and  _117
REMARK   41  A    between atoms: _117  and  _118
REMARK   42  A    between atoms: _121  and  _123
REMARK   43  A    between atoms: _123  and  _124
REMARK   44  A    between atoms: _123  and  _126
REMARK   45  A    between atoms: _126  and  _127
REMARK   46  A    between atoms: _131  and  ZN_724
REMARK   47  A    between atoms: _132  and  _134
REMARK   48  A    between atoms: _134  and  _135
REMARK   49  A    between atoms: _138  and  _140
REMARK   50  A    between atoms: _140  and  _141
REMARK   51  A    between atoms: _140  and  _143
REMARK   52  A    between atoms: _143  and  _144
REMARK   53  A    between atoms: _149  and  _150
REMARK   54  A    between atoms: _152  and  _154
REMARK   55  A    between atoms: _154  and  _155
REMARK   56  A    between atoms: _158  and  _160
REMARK   57  A    between atoms: _160  and  _161
REMARK   58  A    between atoms: _160  and  _163
REMARK   59  A    between atoms: _163  and  _164
REMARK   60  A    between atoms: _167  and  _169
REMARK   61  A    between atoms: _169  and  _170
REMARK   62  A    between atoms: _172  and  _174
REMARK   63  A    between atoms: _174  and  _175
REMARK   64  A    between atoms: _174  and  _177
REMARK   65  A    between atoms: _177  and  _178
REMARK   66  A    between atoms: _181  and  _183
REMARK   67  A    between atoms: _183  and  _184
REMARK   68  A    between atoms: _183  and  _186
REMARK   69  A    between atoms: _186  and  _187
REMARK   70  A    between atoms: _188  and  ZN_724
REMARK   71  A    between atoms: _192  and  _194
REMARK   72  A    between atoms: _194  and  _195
REMARK   73  A    between atoms: _194  and  _197
REMARK   74  A    between atoms: _197  and  _198
REMARK   75  A    between atoms: _201  and  _203
REMARK   76  A    between atoms: _203  and  _204
REMARK   77  A    between atoms: _203  and  _206
REMARK   78  A    between atoms: _206  and  _207
REMARK   79  A    between atoms: _207  and  _208
REMARK   80  A    between atoms: _211  and  _213
REMARK   81  A    between atoms: _213  and  _214
REMARK   82  A    between atoms: _213  and  _216
REMARK   83  A    between atoms: _216  and  _217
REMARK   84  A    between atoms: _227  and  _229
REMARK   85  A    between atoms: _229  and  _230
REMARK   86  A    between atoms: _232  and  _234
REMARK   87  A    between atoms: _234  and  _235
REMARK   88  A    between atoms: _234  and  _237
REMARK   89  A    between atoms: _237  and  _238
REMARK   90  A    between atoms: _241  and  _243
REMARK   91  A    between atoms: _243  and  _244
REMARK   92  A    between atoms: _243  and  _246
REMARK   93  A    between atoms: _246  and  _247
REMARK   94  A    between atoms: _252  and  _254
REMARK   95  A    between atoms: _254  and  _255
REMARK   96  A    between atoms: _254  and  _257
REMARK   97  A    between atoms: _257  and  _258
REMARK   98  A    between atoms: _261  and  _263
REMARK   99  A    between atoms: _263  and  _264
REMARK  100  A    between atoms: _263  and  _266
REMARK  101  A    between atoms: _266  and  _267
REMARK  102  A    between atoms: _273  and  _275
REMARK  103  A    between atoms: _275  and  _276
REMARK  104  A    between atoms: _275  and  _278
REMARK  105  A    between atoms: _278  and  _279
REMARK  106  A    between atoms: _282  and  _284
REMARK  107  A    between atoms: _284  and  _285
REMARK  108  A    between atoms: _284  and  _287
REMARK  109  A    between atoms: _290  and  _292
REMARK  110  A    between atoms: _292  and  _293
REMARK  111  A    between atoms: _296  and  _298
REMARK  112  A    between atoms: _298  and  _299
REMARK  113  A    between atoms: _302  and  _304
REMARK  114  A    between atoms: _315  and  _318
REMARK  115  A    between atoms: _318  and  _319
REMARK  116  A    between atoms: _319  and  _320
REMARK  117  A    between atoms: _325  and  _328
REMARK  118  A    between atoms: _328  and  _329
REMARK  119  A    between atoms: _339  and  _340
REMARK  120  A    between atoms: _348  and  _350
REMARK  121  A    between atoms: _350  and  _351
REMARK  122  A    between atoms: _350  and  _353
REMARK  123  A    between atoms: _353  and  _354
REMARK  124  A    between atoms: _356  and  _358
REMARK  125  A    between atoms: _358  and  _359
REMARK  126  A    between atoms: _358  and  _361
REMARK  127  A    between atoms: _361  and  _362
REMARK  128  A    between atoms: _366  and  ZN_723
REMARK  129  A    between atoms: _367  and  _369
REMARK  130  A    between atoms: _369  and  _370
REMARK  131  A    between atoms: _369  and  _372
REMARK  132  A    between atoms: _372  and  _373
REMARK  133  A    between atoms: _375  and  _377
REMARK  134  A    between atoms: _377  and  _378
REMARK  135  A    between atoms: _377  and  _380
REMARK  136  A    between atoms: _380  and  _381
REMARK  137  A    between atoms: _386  and  _388
REMARK  138  A    between atoms: _388  and  _389
REMARK  139  A    between atoms: _388  and  _391
REMARK  140  A    between atoms: _391  and  _392
REMARK  141  A    between atoms: _395  and  _397
REMARK  142  A    between atoms: _397  and  _398
REMARK  143  A    between atoms: _397  and  _400
REMARK  144  A    between atoms: _400  and  _401
REMARK  145  A    between atoms: _401  and  _402
REMARK  146  A    between atoms: _405  and  _407
REMARK  147  A    between atoms: _407  and  _408
REMARK  148  A    between atoms: _411  and  _413
REMARK  149  A    between atoms: _413  and  _414
REMARK  150  A    between atoms: _413  and  _416
REMARK  151  A    between atoms: _416  and  _417
REMARK  152  A    between atoms: _420  and  _422
REMARK  153  A    between atoms: _422  and  _423
REMARK  154  A    between atoms: _422  and  _425
REMARK  155  A    between atoms: _425  and  _426
REMARK  156  A    between atoms: _426  and  _427
REMARK  157  A    between atoms: _429  and  _431
REMARK  158  A    between atoms: _431  and  _432
REMARK  159  A    between atoms: _431  and  _434
REMARK  160  A    between atoms: _434  and  _435
REMARK  161  A    between atoms: _440  and  _441
REMARK  162  A    between atoms: _444  and  _445
REMARK  163  A    between atoms: _450  and  _452
REMARK  164  A    between atoms: _452  and  _453
REMARK  165  A    between atoms: _452  and  _455
REMARK  166  A    between atoms: _455  and  _456
REMARK  167  A    between atoms: _459  and  _461
REMARK  168  A    between atoms: _461  and  _462
REMARK  169  A    between atoms: _461  and  _464
REMARK  170  A    between atoms: _464  and  _465
REMARK  171  A    between atoms: _470  and  _471
REMARK  172  A    between atoms: _473  and  _475
REMARK  173  A    between atoms: _475  and  _476
REMARK  174  A    between atoms: _475  and  _478
REMARK  175  A    between atoms: _478  and  _479
REMARK  176  A    between atoms: _484  and  _486
REMARK  177  A    between atoms: _486  and  _487
REMARK  178  A    between atoms: _486  and  _489
REMARK  179  A    between atoms: _489  and  _490
REMARK  180  A    between atoms: _492  and  _494
REMARK  181  A    between atoms: _494  and  _495
REMARK  182  A    between atoms: _494  and  _497
REMARK  183  A    between atoms: _497  and  _498
REMARK  184  A    between atoms: _501  and  _503
REMARK  185  A    between atoms: _503  and  _504
REMARK  186  A    between atoms: _503  and  _506
REMARK  187  A    between atoms: _506  and  _507
REMARK  188  A    between atoms: _510  and  _512
REMARK  189  A    between atoms: _512  and  _513
REMARK  190  A    between atoms: _512  and  _515
REMARK  191  A    between atoms: _515  and  _516
REMARK  192  A    between atoms: _519  and  _521
REMARK  193  A    between atoms: _521  and  _522
REMARK  194  A    between atoms: _521  and  _524
REMARK  195  A    between atoms: _524  and  _525
REMARK  196  A    between atoms: _528  and  _530
REMARK  197  A    between atoms: _530  and  _531
REMARK  198  A    between atoms: _530  and  _533
REMARK  199  A    between atoms: _533  and  _534
REMARK  200  A    between atoms: _534  and  _535
REMARK  201  A    between atoms: _535  and  _536
REMARK  202  A    between atoms: _545  and  _547
REMARK  203  A    between atoms: _547  and  _548
REMARK  204  A    between atoms: _547  and  _550
REMARK  205  A    between atoms: _550  and  _551
REMARK  206  A    between atoms: _557  and  _559
REMARK  207  A    between atoms: _559  and  _560
REMARK  208  A    between atoms: _559  and  _562
REMARK  209  A    between atoms: _562  and  _563
REMARK  210  A    between atoms: _563  and  _564
REMARK  211  A    between atoms: _564  and  _565
REMARK  212  A    between atoms: _574  and  _576
REMARK  213  A    between atoms: _576  and  _577
REMARK  214  A    between atoms: _576  and  _579
REMARK  215  A    between atoms: _579  and  _580
REMARK  216  A    between atoms: _582  and  _584
REMARK  217  A    between atoms: _584  and  _585
REMARK  218  A    between atoms: _584  and  _587
REMARK  219  A    between atoms: _587  and  _588
REMARK  220  A    between atoms: _591  and  _593
REMARK  221  A    between atoms: _593  and  _594
REMARK  222  A    between atoms: _593  and  _596
REMARK  223  A    between atoms: _596  and  _597
REMARK  224  A    between atoms: _601  and  _602
REMARK  225  A    between atoms: _607  and  _609
REMARK  226  A    between atoms: _609  and  _610
REMARK  227  A    between atoms: _609  and  _612
REMARK  228  A    between atoms: _612  and  _613
REMARK  229  A    between atoms: _618  and  _620
REMARK  230  A    between atoms: _620  and  _621
REMARK  231  A    between atoms: _620  and  _623
REMARK  232  A    between atoms: _623  and  _624
REMARK  233  A    between atoms: _627  and  _629
REMARK  234  A    between atoms: _629  and  _630
REMARK  235  A    between atoms: _629  and  _632
REMARK  236  A    between atoms: _632  and  _633
REMARK  237  A    between atoms: _639  and  _641
REMARK  238  A    between atoms: _641  and  _642
REMARK  239  A    between atoms: _641  and  _644
REMARK  240  A    between atoms: _644  and  _645
REMARK  241  A    between atoms: _650  and  _652
REMARK  242  A    between atoms: _652  and  _653
REMARK  243  A    between atoms: _652  and  _655
REMARK  244  A    between atoms: _655  and  _656
REMARK  245  A    between atoms: _658  and  _660
REMARK  246  A    between atoms: _660  and  _661
REMARK  247  A    between atoms: _664  and  _666
REMARK  248  A    between atoms: _666  and  _667
REMARK  249  A    between atoms: _666  and  _669
REMARK  250  A    between atoms: _669  and  _670
REMARK  251  A    between atoms: _675  and  _677
REMARK  252  A    between atoms: _677  and  _678
REMARK  253  A    between atoms: _677  and  _680
REMARK  254  A    between atoms: _680  and  _681
REMARK  255  A    between atoms: _684  and  _686
REMARK  256  A    between atoms: _686  and  _687
REMARK  257  A    between atoms: _686  and  _689
REMARK  258  A    between atoms: _689  and  _690
REMARK  259  A    between atoms: _690  and  _691
REMARK  260  A    between atoms: _693  and  _695
REMARK  261  A    between atoms: _695  and  _696
REMARK  262  A    between atoms: _695  and  _698
REMARK  263  A    between atoms: _698  and  _699
REMARK  264  A    between atoms: _704  and  _705
REMARK  265  A    between atoms: _708  and  _709
REMARK  266  A    between atoms: _714  and  _716
REMARK  267  A    between atoms: _716  and  _717
REMARK  268  A    between atoms: _716  and  _719
REMARK  269  A    between atoms: _719  and  _720
REMARK                            x       y       z     vdW  Elec       q    Type
REMARK                         _______ _______ _______ _____ _____    ______ ____
ROOT
ATOM      1  O   HOH     1      20.264  38.417  16.859  0.00  0.00    +0.000 OA
ENDROOT
TORSDOF 0
REMARK  Name = ../refined-set-2016/1hfs/1hfs_pocket.pdb
REMARK  269 active torsions:
REMARK  status: ('A' for Active; 'I' for Inactive)
REMARK    1  A    between atoms: _1  and  _3
REMARK    2  A    between atoms: _3  and  _4
REMARK    3  A    between atoms: _3  and  _6
REMARK    4  A    between atoms: _6  and  _7
REMARK    5  A    between atoms: _11  and  ZN_724
REMARK    6  A    between atoms: _12  and  _14
REMARK    7  A    between atoms: _14  and  _15
REMARK    8  A    between atoms: _14  and  _17
REMARK    9  A    between atoms: _17  and  _18
REMARK   10  A    between atoms: _18  and  _20
REMARK   11  A    between atoms: _20  and  ZN_724
REMARK   12  A    between atoms: _21  and  _23
REMARK   13  A    between atoms: _23  and  _24
REMARK   14  A    between atoms: _23  and  _26
REMARK   15  A    between atoms: _26  and  _27
REMARK   16  A    between atoms: _33  and  _35
REMARK   17  A    between atoms: _35  and  _36
REMARK   18  A    between atoms: _35  and  _38
REMARK   19  A    between atoms: _38  and  _39
REMARK   20  A    between atoms: _44  and  _45
REMARK   21  A    between atoms: _48  and  _49
REMARK   22  A    between atoms: _54  and  _56
REMARK   23  A    between atoms: _56  and  _57
REMARK   24  A    between atoms: _56  and  _59
REMARK   25  A    between atoms: _59  and  _60
REMARK   26  A    between atoms: _66  and  _68
REMARK   27  A    between atoms: _68  and  _69
REMARK   28  A    between atoms: _68  and  _71
REMARK   29  A    between atoms: _71  and  _72
REMARK   30  A    between atoms: _76  and  _77
REMARK   31  A    between atoms: _82  and  _84
REMARK   32  A    between atoms: _89  and  _92
REMARK   33  A    between atoms: _92  and  _93
REMARK   34  A    between atoms: _100  and  _103
REMARK   35  A    between atoms: _101  and  _106
REMARK   36  A    between atoms: _106  and  _108
REMARK   37  A    between atoms: _108  and  _109
REMARK   38  A    between atoms: _108  and  _111
REMARK   39  A    between atoms: _111  and  _112
REMARK   40  A    between atoms: _115  and  _117
REMARK   41  A    between atoms: _117  and  _118
REMARK   42  A    between atoms: _121  and  _123
REMARK   43  A    between atoms: _123  and  _124
REMARK   44  A    between atoms: _123  and  _126
REMARK   45  A    between atoms: _126  and  _127
REMARK   46  A    between atoms: _131  and  ZN_724
REMARK   47  A    between atoms: _132  and  _134
REMARK   48  A    between atoms: _134  and  _135
REMARK   49  A    between atoms: _138  and  _140
REMARK   50  A    between atoms: _140  and  _141
REMARK   51  A    between atoms: _140  and  _143
REMARK   52  A    between atoms: _143  and  _144
REMARK   53  A    between atoms: _149  and  _150
REMARK   54  A    between atoms: _152  and  _154
REMARK   55  A    between atoms: _154  and  _155
REMARK   56  A    between atoms: _158  and  _160
REMARK   57  A    between atoms: _160  and  _161
REMARK   58  A    between atoms: _160  and  _163
REMARK   59  A    between atoms: _163  and  _164
REMARK   60  A    between atoms: _167  and  _169
REMARK   61  A    between atoms: _169  and  _170
REMARK   62  A    between atoms: _172  and  _174
REMARK   63  A    between atoms: _174  and  _175
REMARK   64  A    between atoms: _174  and  _177
REMARK   65  A    between atoms: _177  and  _178
REMARK   66  A    between atoms: _181  and  _183
REMARK   67  A    between atoms: _183  and  _184
REMARK   68  A    between atoms: _183  and  _186
REMARK   69  A    between atoms: _186  and  _187
REMARK   70  A    between atoms: _188  and  ZN_724
REMARK   71  A    between atoms: _192  and  _194
REMARK   72  A    between atoms: _194  and  _195
REMARK   73  A    between atoms: _194  and  _197
REMARK   74  A    between atoms: _197  and  _198
REMARK   75  A    between atoms: _201  and  _203
REMARK   76  A    between atoms: _203  and  _204
REMARK   77  A    between atoms: _203  and  _206
REMARK   78  A    between atoms: _206  and  _207
REMARK   79  A    between atoms: _207  and  _208
REMARK   80  A    between atoms: _211  and  _213
REMARK   81  A    between atoms: _213  and  _214
REMARK   82  A    between atoms: _213  and  _216
REMARK   83  A    between atoms: _216  and  _217
REMARK   84  A    between atoms: _227  and  _229
REMARK   85  A    between atoms: _229  and  _230
REMARK   86  A    between atoms: _232  and  _234
REMARK   87  A    between atoms: _234  and  _235
REMARK   88  A    between atoms: _234  and  _237
REMARK   89  A    between atoms: _237  and  _238
REMARK   90  A    between atoms: _241  and  _243
REMARK   91  A    between atoms: _243  and  _244
REMARK   92  A    between atoms: _243  and  _246
REMARK   93  A    between atoms: _246  and  _247
REMARK   94  A    between atoms: _252  and  _254
REMARK   95  A    between atoms: _254  and  _255
REMARK   96  A    between atoms: _254  and  _257
REMARK   97  A    between atoms: _257  and  _258
REMARK   98  A    between atoms: _261  and  _263
REMARK   99  A    between atoms: _263  and  _264
REMARK  100  A    between atoms: _263  and  _266
REMARK  101  A    between atoms: _266  and  _267
REMARK  102  A    between atoms: _273  and  _275
REMARK  103  A    between atoms: _275  and  _276
REMARK  104  A    between atoms: _275  and  _278
REMARK  105  A    between atoms: _278  and  _279
REMARK  106  A    between atoms: _282  and  _284
REMARK  107  A    between atoms: _284  and  _285
REMARK  108  A    between atoms: _284  and  _287
REMARK  109  A    between atoms: _290  and  _292
REMARK  110  A    between atoms: _292  and  _293
REMARK  111  A    between atoms: _296  and  _298
REMARK  112  A    between atoms: _298  and  _299
REMARK  113  A    between atoms: _302  and  _304
REMARK  114  A    between atoms: _315  and  _318
REMARK  115  A    between atoms: _318  and  _319
REMARK  116  A    between atoms: _319  and  _320
REMARK  117  A    between atoms: _325  and  _328
REMARK  118  A    between atoms: _328  and  _329
REMARK  119  A    between atoms: _339  and  _340
REMARK  120  A    between atoms: _348  and  _350
REMARK  121  A    between atoms: _350  and  _351
REMARK  122  A    between atoms: _350  and  _353
REMARK  123  A    between atoms: _353  and  _354
REMARK  124  A    between atoms: _356  and  _358
REMARK  125  A    between atoms: _358  and  _359
REMARK  126  A    between atoms: _358  and  _361
REMARK  127  A    between atoms: _361  and  _362
REMARK  128  A    between atoms: _366  and  ZN_723
REMARK  129  A    between atoms: _367  and  _369
REMARK  130  A    between atoms: _369  and  _370
REMARK  131  A    between atoms: _369  and  _372
REMARK  132  A    between atoms: _372  and  _373
REMARK  133  A    between atoms: _375  and  _377
REMARK  134  A    between atoms: _377  and  _378
REMARK  135  A    between atoms: _377  and  _380
REMARK  136  A    between atoms: _380  and  _381
REMARK  137  A    between atoms: _386  and  _388
REMARK  138  A    between atoms: _388  and  _389
REMARK  139  A    between atoms: _388  and  _391
REMARK  140  A    between atoms: _391  and  _392
REMARK  141  A    between atoms: _395  and  _397
REMARK  142  A    between atoms: _397  and  _398
REMARK  143  A    between atoms: _397  and  _400
REMARK  144  A    between atoms: _400  and  _401
REMARK  145  A    between atoms: _401  and  _402
REMARK  146  A    between atoms: _405  and  _407
REMARK  147  A    between atoms: _407  and  _408
REMARK  148  A    between atoms: _411  and  _413
REMARK  149  A    between atoms: _413  and  _414
REMARK  150  A    between atoms: _413  and  _416
REMARK  151  A    between atoms: _416  and  _417
REMARK  152  A    between atoms: _420  and  _422
REMARK  153  A    between atoms: _422  and  _423
REMARK  154  A    between atoms: _422  and  _425
REMARK  155  A    between atoms: _425  and  _426
REMARK  156  A    between atoms: _426  and  _427
REMARK  157  A    between atoms: _429  and  _431
REMARK  158  A    between atoms: _431  and  _432
REMARK  159  A    between atoms: _431  and  _434
REMARK  160  A    between atoms: _434  and  _435
REMARK  161  A    between atoms: _440  and  _441
REMARK  162  A    between atoms: _444  and  _445
REMARK  163  A    between atoms: _450  and  _452
REMARK  164  A    between atoms: _452  and  _453
REMARK  165  A    between atoms: _452  and  _455
REMARK  166  A    between atoms: _455  and  _456
REMARK  167  A    between atoms: _459  and  _461
REMARK  168  A    between atoms: _461  and  _462
REMARK  169  A    between atoms: _461  and  _464
REMARK  170  A    between atoms: _464  and  _465
REMARK  171  A    between atoms: _470  and  _471
REMARK  172  A    between atoms: _473  and  _475
REMARK  173  A    between atoms: _475  and  _476
REMARK  174  A    between atoms: _475  and  _478
REMARK  175  A    between atoms: _478  and  _479
REMARK  176  A    between atoms: _484  and  _486
REMARK  177  A    between atoms: _486  and  _487
REMARK  178  A    between atoms: _486  and  _489
REMARK  179  A    between atoms: _489  and  _490
REMARK  180  A    between atoms: _492  and  _494
REMARK  181  A    between atoms: _494  and  _495
REMARK  182  A    between atoms: _494  and  _497
REMARK  183  A    between atoms: _497  and  _498
REMARK  184  A    between atoms: _501  and  _503
REMARK  185  A    between atoms: _503  and  _504
REMARK  186  A    between atoms: _503  and  _506
REMARK  187  A    between atoms: _506  and  _507
REMARK  188  A    between atoms: _510  and  _512
REMARK  189  A    between atoms: _512  and  _513
REMARK  190  A    between atoms: _512  and  _515
REMARK  191  A    between atoms: _515  and  _516
REMARK  192  A    between atoms: _519  and  _521
REMARK  193  A    between atoms: _521  and  _522
REMARK  194  A    between atoms: _521  and  _524
REMARK  195  A    between atoms: _524  and  _525
REMARK  196  A    between atoms: _528  and  _530
REMARK  197  A    between atoms: _530  and  _531
REMARK  198  A    between atoms: _530  and  _533
REMARK  199  A    between atoms: _533  and  _534
REMARK  200  A    between atoms: _534  and  _535
REMARK  201  A    between atoms: _535  and  _536
REMARK  202  A    between atoms: _545  and  _547
REMARK  203  A    between atoms: _547  and  _548
REMARK  204  A    between atoms: _547  and  _550
REMARK  205  A    between atoms: _550  and  _551
REMARK  206  A    between atoms: _557  and  _559
REMARK  207  A    between atoms: _559  and  _560
REMARK  208  A    between atoms: _559  and  _562
REMARK  209  A    between atoms: _562  and  _563
REMARK  210  A    between atoms: _563  and  _564
REMARK  211  A    between atoms: _564  and  _565
REMARK  212  A    between atoms: _574  and  _576
REMARK  213  A    between atoms: _576  and  _577
REMARK  214  A    between atoms: _576  and  _579
REMARK  215  A    between atoms: _579  and  _580
REMARK  216  A    between atoms: _582  and  _584
REMARK  217  A    between atoms: _584  and  _585
REMARK  218  A    between atoms: _584  and  _587
REMARK  219  A    between atoms: _587  and  _588
REMARK  220  A    between atoms: _591  and  _593
REMARK  221  A    between atoms: _593  and  _594
REMARK  222  A    between atoms: _593  and  _596
REMARK  223  A    between atoms: _596  and  _597
REMARK  224  A    between atoms: _601  and  _602
REMARK  225  A    between atoms: _607  and  _609
REMARK  226  A    between atoms: _609  and  _610
REMARK  227  A    between atoms: _609  and  _612
REMARK  228  A    between atoms: _612  and  _613
REMARK  229  A    between atoms: _618  and  _620
REMARK  230  A    between atoms: _620  and  _621
REMARK  231  A    between atoms: _620  and  _623
REMARK  232  A    between atoms: _623  and  _624
REMARK  233  A    between atoms: _627  and  _629
REMARK  234  A    between atoms: _629  and  _630
REMARK  235  A    between atoms: _629  and  _632
REMARK  236  A    between atoms: _632  and  _633
REMARK  237  A    between atoms: _639  and  _641
REMARK  238  A    between atoms: _641  and  _642
REMARK  239  A    between atoms: _641  and  _644
REMARK  240  A    between atoms: _644  and  _645
REMARK  241  A    between atoms: _650  and  _652
REMARK  242  A    between atoms: _652  and  _653
REMARK  243  A    between atoms: _652  and  _655
REMARK  244  A    between atoms: _655  and  _656
REMARK  245  A    between atoms: _658  and  _660
REMARK  246  A    between atoms: _660  and  _661
REMARK  247  A    between atoms: _664  and  _666
REMARK  248  A    between atoms: _666  and  _667
REMARK  249  A    between atoms: _666  and  _669
REMARK  250  A    between atoms: _669  and  _670
REMARK  251  A    between atoms: _675  and  _677
REMARK  252  A    between atoms: _677  and  _678
REMARK  253  A    between atoms: _677  and  _680
REMARK  254  A    between atoms: _680  and  _681
REMARK  255  A    between atoms: _684  and  _686
REMARK  256  A    between atoms: _686  and  _687
REMARK  257  A    between atoms: _686  and  _689
REMARK  258  A    between atoms: _689  and  _690
REMARK  259  A    between atoms: _690  and  _691
REMARK  260  A    between atoms: _693  and  _695
REMARK  261  A    between atoms: _695  and  _696
REMARK  262  A    between atoms: _695  and  _698
REMARK  263  A    between atoms: _698  and  _699
REMARK  264  A    between atoms: _704  and  _705
REMARK  265  A    between atoms: _708  and  _709
REMARK  266  A    between atoms: _714  and  _716
REMARK  267  A    between atoms: _716  and  _717
REMARK  268  A    between atoms: _716  and  _719
REMARK  269  A    between atoms: _719  and  _720
REMARK                            x       y       z     vdW  Elec       q    Type
REMARK                         _______ _______ _______ _____ _____    ______ ____
ROOT
ATOM      1  O   HOH     1      41.096  30.580  18.490  0.00  0.00    +0.000 OA
ENDROOT
TORSDOF 0
REMARK  Name = ../refined-set-2016/1hfs/1hfs_pocket.pdb
REMARK  269 active torsions:
REMARK  status: ('A' for Active; 'I' for Inactive)
REMARK    1  A    between atoms: _1  and  _3
REMARK    2  A    between atoms: _3  and  _4
REMARK    3  A    between atoms: _3  and  _6
REMARK    4  A    between atoms: _6  and  _7
REMARK    5  A    between atoms: _11  and  ZN_724
REMARK    6  A    between atoms: _12  and  _14
REMARK    7  A    between atoms: _14  and  _15
REMARK    8  A    between atoms: _14  and  _17
REMARK    9  A    between atoms: _17  and  _18
REMARK   10  A    between atoms: _18  and  _20
REMARK   11  A    between atoms: _20  and  ZN_724
REMARK   12  A    between atoms: _21  and  _23
REMARK   13  A    between atoms: _23  and  _24
REMARK   14  A    between atoms: _23  and  _26
REMARK   15  A    between atoms: _26  and  _27
REMARK   16  A    between atoms: _33  and  _35
REMARK   17  A    between atoms: _35  and  _36
REMARK   18  A    between atoms: _35  and  _38
REMARK   19  A    between atoms: _38  and  _39
REMARK   20  A    between atoms: _44  and  _45
REMARK   21  A    between atoms: _48  and  _49
REMARK   22  A    between atoms: _54  and  _56
REMARK   23  A    between atoms: _56  and  _57
REMARK   24  A    between atoms: _56  and  _59
REMARK   25  A    between atoms: _59  and  _60
REMARK   26  A    between atoms: _66  and  _68
REMARK   27  A    between atoms: _68  and  _69
REMARK   28  A    between atoms: _68  and  _71
REMARK   29  A    between atoms: _71  and  _72
REMARK   30  A    between atoms: _76  and  _77
REMARK   31  A    between atoms: _82  and  _84
REMARK   32  A    between atoms: _89  and  _92
REMARK   33  A    between atoms: _92  and  _93
REMARK   34  A    between atoms: _100  and  _103
REMARK   35  A    between atoms: _101  and  _106
REMARK   36  A    between atoms: _106  and  _108
REMARK   37  A    between atoms: _108  and  _109
REMARK   38  A    between atoms: _108  and  _111
REMARK   39  A    between atoms: _111  and  _112
REMARK   40  A    between atoms: _115  and  _117
REMARK   41  A    between atoms: _117  and  _118
REMARK   42  A    between atoms: _121  and  _123
REMARK   43  A    between atoms: _123  and  _124
REMARK   44  A    between atoms: _123  and  _126
REMARK   45  A    between atoms: _126  and  _127
REMARK   46  A    between atoms: _131  and  ZN_724
REMARK   47  A    between atoms: _132  and  _134
REMARK   48  A    between atoms: _134  and  _135
REMARK   49  A    between atoms: _138  and  _140
REMARK   50  A    between atoms: _140  and  _141
REMARK   51  A    between atoms: _140  and  _143
REMARK   52  A    between atoms: _143  and  _144
REMARK   53  A    between atoms: _149  and  _150
REMARK   54  A    between atoms: _152  and  _154
REMARK   55  A    between atoms: _154  and  _155
REMARK   56  A    between atoms: _158  and  _160
REMARK   57  A    between atoms: _160  and  _161
REMARK   58  A    between atoms: _160  and  _163
REMARK   59  A    between atoms: _163  and  _164
REMARK   60  A    between atoms: _167  and  _169
REMARK   61  A    between atoms: _169  and  _170
REMARK   62  A    between atoms: _172  and  _174
REMARK   63  A    between atoms: _174  and  _175
REMARK   64  A    between atoms: _174  and  _177
REMARK   65  A    between atoms: _177  and  _178
REMARK   66  A    between atoms: _181  and  _183
REMARK   67  A    between atoms: _183  and  _184
REMARK   68  A    between atoms: _183  and  _186
REMARK   69  A    between atoms: _186  and  _187
REMARK   70  A    between atoms: _188  and  ZN_724
REMARK   71  A    between atoms: _192  and  _194
REMARK   72  A    between atoms: _194  and  _195
REMARK   73  A    between atoms: _194  and  _197
REMARK   74  A    between atoms: _197  and  _198
REMARK   75  A    between atoms: _201  and  _203
REMARK   76  A    between atoms: _203  and  _204
REMARK   77  A    between atoms: _203  and  _206
REMARK   78  A    between atoms: _206  and  _207
REMARK   79  A    between atoms: _207  and  _208
REMARK   80  A    between atoms: _211  and  _213
REMARK   81  A    between atoms: _213  and  _214
REMARK   82  A    between atoms: _213  and  _216
REMARK   83  A    between atoms: _216  and  _217
REMARK   84  A    between atoms: _227  and  _229
REMARK   85  A    between atoms: _229  and  _230
REMARK   86  A    between atoms: _232  and  _234
REMARK   87  A    between atoms: _234  and  _235
REMARK   88  A    between atoms: _234  and  _237
REMARK   89  A    between atoms: _237  and  _238
REMARK   90  A    between atoms: _241  and  _243
REMARK   91  A    between atoms: _243  and  _244
REMARK   92  A    between atoms: _243  and  _246
REMARK   93  A    between atoms: _246  and  _247
REMARK   94  A    between atoms: _252  and  _254
REMARK   95  A    between atoms: _254  and  _255
REMARK   96  A    between atoms: _254  and  _257
REMARK   97  A    between atoms: _257  and  _258
REMARK   98  A    between atoms: _261  and  _263
REMARK   99  A    between atoms: _263  and  _264
REMARK  100  A    between atoms: _263  and  _266
REMARK  101  A    between atoms: _266  and  _267
REMARK  102  A    between atoms: _273  and  _275
REMARK  103  A    between atoms: _275  and  _276
REMARK  104  A    between atoms: _275  and  _278
REMARK  105  A    between atoms: _278  and  _279
REMARK  106  A    between atoms: _282  and  _284
REMARK  107  A    between atoms: _284  and  _285
REMARK  108  A    between atoms: _284  and  _287
REMARK  109  A    between atoms: _290  and  _292
REMARK  110  A    between atoms: _292  and  _293
REMARK  111  A    between atoms: _296  and  _298
REMARK  112  A    between atoms: _298  and  _299
REMARK  113  A    between atoms: _302  and  _304
REMARK  114  A    between atoms: _315  and  _318
REMARK  115  A    between atoms: _318  and  _319
REMARK  116  A    between atoms: _319  and  _320
REMARK  117  A    between atoms: _325  and  _328
REMARK  118  A    between atoms: _328  and  _329
REMARK  119  A    between atoms: _339  and  _340
REMARK  120  A    between atoms: _348  and  _350
REMARK  121  A    between atoms: _350  and  _351
REMARK  122  A    between atoms: _350  and  _353
REMARK  123  A    between atoms: _353  and  _354
REMARK  124  A    between atoms: _356  and  _358
REMARK  125  A    between atoms: _358  and  _359
REMARK  126  A    between atoms: _358  and  _361
REMARK  127  A    between atoms: _361  and  _362
REMARK  128  A    between atoms: _366  and  ZN_723
REMARK  129  A    between atoms: _367  and  _369
REMARK  130  A    between atoms: _369  and  _370
REMARK  131  A    between atoms: _369  and  _372
REMARK  132  A    between atoms: _372  and  _373
REMARK  133  A    between atoms: _375  and  _377
REMARK  134  A    between atoms: _377  and  _378
REMARK  135  A    between atoms: _377  and  _380
REMARK  136  A    between atoms: _380  and  _381
REMARK  137  A    between atoms: _386  and  _388
REMARK  138  A    between atoms: _388  and  _389
REMARK  139  A    between atoms: _388  and  _391
REMARK  140  A    between atoms: _391  and  _392
REMARK  141  A    between atoms: _395  and  _397
REMARK  142  A    between atoms: _397  and  _398
REMARK  143  A    between atoms: _397  and  _400
REMARK  144  A    between atoms: _400  and  _401
REMARK  145  A    between atoms: _401  and  _402
REMARK  146  A    between atoms: _405  and  _407
REMARK  147  A    between atoms: _407  and  _408
REMARK  148  A    between atoms: _411  and  _413
REMARK  149  A    between atoms: _413  and  _414
REMARK  150  A    between atoms: _413  and  _416
REMARK  151  A    between atoms: _416  and  _417
REMARK  152  A    between atoms: _420  and  _422
REMARK  153  A    between atoms: _422  and  _423
REMARK  154  A    between atoms: _422  and  _425
REMARK  155  A    between atoms: _425  and  _426
REMARK  156  A    between atoms: _426  and  _427
REMARK  157  A    between atoms: _429  and  _431
REMARK  158  A    between atoms: _431  and  _432
REMARK  159  A    between atoms: _431  and  _434
REMARK  160  A    between atoms: _434  and  _435
REMARK  161  A    between atoms: _440  and  _441
REMARK  162  A    between atoms: _444  and  _445
REMARK  163  A    between atoms: _450  and  _452
REMARK  164  A    between atoms: _452  and  _453
REMARK  165  A    between atoms: _452  and  _455
REMARK  166  A    between atoms: _455  and  _456
REMARK  167  A    between atoms: _459  and  _461
REMARK  168  A    between atoms: _461  and  _462
REMARK  169  A    between atoms: _461  and  _464
REMARK  170  A    between atoms: _464  and  _465
REMARK  171  A    between atoms: _470  and  _471
REMARK  172  A    between atoms: _473  and  _475
REMARK  173  A    between atoms: _475  and  _476
REMARK  174  A    between atoms: _475  and  _478
REMARK  175  A    between atoms: _478  and  _479
REMARK  176  A    between atoms: _484  and  _486
REMARK  177  A    between atoms: _486  and  _487
REMARK  178  A    between atoms: _486  and  _489
REMARK  179  A    between atoms: _489  and  _490
REMARK  180  A    between atoms: _492  and  _494
REMARK  181  A    between atoms: _494  and  _495
REMARK  182  A    between atoms: _494  and  _497
REMARK  183  A    between atoms: _497  and  _498
REMARK  184  A    between atoms: _501  and  _503
REMARK  185  A    between atoms: _503  and  _504
REMARK  186  A    between atoms: _503  and  _506
REMARK  187  A    between atoms: _506  and  _507
REMARK  188  A    between atoms: _510  and  _512
REMARK  189  A    between atoms: _512  and  _513
REMARK  190  A    between atoms: _512  and  _515
REMARK  191  A    between atoms: _515  and  _516
REMARK  192  A    between atoms: _519  and  _521
REMARK  193  A    between atoms: _521  and  _522
REMARK  194  A    between atoms: _521  and  _524
REMARK  195  A    between atoms: _524  and  _525
REMARK  196  A    between atoms: _528  and  _530
REMARK  197  A    between atoms: _530  and  _531
REMARK  198  A    between atoms: _530  and  _533
REMARK  199  A    between atoms: _533  and  _534
REMARK  200  A    between atoms: _534  and  _535
REMARK  201  A    between atoms: _535  and  _536
REMARK  202  A    between atoms: _545  and  _547
REMARK  203  A    between atoms: _547  and  _548
REMARK  204  A    between atoms: _547  and  _550
REMARK  205  A    between atoms: _550  and  _551
REMARK  206  A    between atoms: _557  and  _559
REMARK  207  A    between atoms: _559  and  _560
REMARK  208  A    between atoms: _559  and  _562
REMARK  209  A    between atoms: _562  and  _563
REMARK  210  A    between atoms: _563  and  _564
REMARK  211  A    between atoms: _564  and  _565
REMARK  212  A    between atoms: _574  and  _576
REMARK  213  A    between atoms: _576  and  _577
REMARK  214  A    between atoms: _576  and  _579
REMARK  215  A    between atoms: _579  and  _580
REMARK  216  A    between atoms: _582  and  _584
REMARK  217  A    between atoms: _584  and  _585
REMARK  218  A    between atoms: _584  and  _587
REMARK  219  A    between atoms: _587  and  _588
REMARK  220  A    between atoms: _591  and  _593
REMARK  221  A    between atoms: _593  and  _594
REMARK  222  A    between atoms: _593  and  _596
REMARK  223  A    between atoms: _596  and  _597
REMARK  224  A    between atoms: _601  and  _602
REMARK  225  A    between atoms: _607  and  _609
REMARK  226  A    between atoms: _609  and  _610
REMARK  227  A    between atoms: _609  and  _612
REMARK  228  A    between atoms: _612  and  _613
REMARK  229  A    between atoms: _618  and  _620
REMARK  230  A    between atoms: _620  and  _621
REMARK  231  A    between atoms: _620  and  _623
REMARK  232  A    between atoms: _623  and  _624
REMARK  233  A    between atoms: _627  and  _629
REMARK  234  A    between atoms: _629  and  _630
REMARK  235  A    between atoms: _629  and  _632
REMARK  236  A    between atoms: _632  and  _633
REMARK  237  A    between atoms: _639  and  _641
REMARK  238  A    between atoms: _641  and  _642
REMARK  239  A    between atoms: _641  and  _644
REMARK  240  A    between atoms: _644  and  _645
REMARK  241  A    between atoms: _650  and  _652
REMARK  242  A    between atoms: _652  and  _653
REMARK  243  A    between atoms: _652  and  _655
REMARK  244  A    between atoms: _655  and  _656
REMARK  245  A    between atoms: _658  and  _660
REMARK  246  A    between atoms: _660  and  _661
REMARK  247  A    between atoms: _664  and  _666
REMARK  248  A    between atoms: _666  and  _667
REMARK  249  A    between atoms: _666  and  _669
REMARK  250  A    between atoms: _669  and  _670
REMARK  251  A    between atoms: _675  and  _677
REMARK  252  A    between atoms: _677  and  _678
REMARK  253  A    between atoms: _677  and  _680
REMARK  254  A    between atoms: _680  and  _681
REMARK  255  A    between atoms: _684  and  _686
REMARK  256  A    between atoms: _686  and  _687
REMARK  257  A    between atoms: _686  and  _689
REMARK  258  A    between atoms: _689  and  _690
REMARK  259  A    between atoms: _690  and  _691
REMARK  260  A    between atoms: _693  and  _695
REMARK  261  A    between atoms: _695  and  _696
REMARK  262  A    between atoms: _695  and  _698
REMARK  263  A    between atoms: _698  and  _699
REMARK  264  A    between atoms: _704  and  _705
REMARK  265  A    between atoms: _708  and  _709
REMARK  266  A    between atoms: _714  and  _716
REMARK  267  A    between atoms: _716  and  _717
REMARK  268  A    between atoms: _716  and  _719
REMARK  269  A    between atoms: _719  and  _720
REMARK                            x       y       z     vdW  Elec       q    Type
REMARK                         _______ _______ _______ _____ _____    ______ ____
ROOT
ATOM      1  O   HOH     1      29.565  40.609  14.346  0.00  0.00    +0.000 OA
ENDROOT
TORSDOF 0
REMARK  Name = ../refined-set-2016/1hfs/1hfs_pocket.pdb
REMARK  269 active torsions:
REMARK  status: ('A' for Active; 'I' for Inactive)
REMARK    1  A    between atoms: _1  and  _3
REMARK    2  A    between atoms: _3  and  _4
REMARK    3  A    between atoms: _3  and  _6
REMARK    4  A    between atoms: _6  and  _7
REMARK    5  A    between atoms: _11  and  ZN_724
REMARK    6  A    between atoms: _12  and  _14
REMARK    7  A    between atoms: _14  and  _15
REMARK    8  A    between atoms: _14  and  _17
REMARK    9  A    between atoms: _17  and  _18
REMARK   10  A    between atoms: _18  and  _20
REMARK   11  A    between atoms: _20  and  ZN_724
REMARK   12  A    between atoms: _21  and  _23
REMARK   13  A    between atoms: _23  and  _24
REMARK   14  A    between atoms: _23  and  _26
REMARK   15  A    between atoms: _26  and  _27
REMARK   16  A    between atoms: _33  and  _35
REMARK   17  A    between atoms: _35  and  _36
REMARK   18  A    between atoms: _35  and  _38
REMARK   19  A    between atoms: _38  and  _39
REMARK   20  A    between atoms: _44  and  _45
REMARK   21  A    between atoms: _48  and  _49
REMARK   22  A    between atoms: _54  and  _56
REMARK   23  A    between atoms: _56  and  _57
REMARK   24  A    between atoms: _56  and  _59
REMARK   25  A    between atoms: _59  and  _60
REMARK   26  A    between atoms: _66  and  _68
REMARK   27  A    between atoms: _68  and  _69
REMARK   28  A    between atoms: _68  and  _71
REMARK   29  A    between atoms: _71  and  _72
REMARK   30  A    between atoms: _76  and  _77
REMARK   31  A    between atoms: _82  and  _84
REMARK   32  A    between atoms: _89  and  _92
REMARK   33  A    between atoms: _92  and  _93
REMARK   34  A    between atoms: _100  and  _103
REMARK   35  A    between atoms: _101  and  _106
REMARK   36  A    between atoms: _106  and  _108
REMARK   37  A    between atoms: _108  and  _109
REMARK   38  A    between atoms: _108  and  _111
REMARK   39  A    between atoms: _111  and  _112
REMARK   40  A    between atoms: _115  and  _117
REMARK   41  A    between atoms: _117  and  _118
REMARK   42  A    between atoms: _121  and  _123
REMARK   43  A    between atoms: _123  and  _124
REMARK   44  A    between atoms: _123  and  _126
REMARK   45  A    between atoms: _126  and  _127
REMARK   46  A    between atoms: _131  and  ZN_724
REMARK   47  A    between atoms: _132  and  _134
REMARK   48  A    between atoms: _134  and  _135
REMARK   49  A    between atoms: _138  and  _140
REMARK   50  A    between atoms: _140  and  _141
REMARK   51  A    between atoms: _140  and  _143
REMARK   52  A    between atoms: _143  and  _144
REMARK   53  A    between atoms: _149  and  _150
REMARK   54  A    between atoms: _152  and  _154
REMARK   55  A    between atoms: _154  and  _155
REMARK   56  A    between atoms: _158  and  _160
REMARK   57  A    between atoms: _160  and  _161
REMARK   58  A    between atoms: _160  and  _163
REMARK   59  A    between atoms: _163  and  _164
REMARK   60  A    between atoms: _167  and  _169
REMARK   61  A    between atoms: _169  and  _170
REMARK   62  A    between atoms: _172  and  _174
REMARK   63  A    between atoms: _174  and  _175
REMARK   64  A    between atoms: _174  and  _177
REMARK   65  A    between atoms: _177  and  _178
REMARK   66  A    between atoms: _181  and  _183
REMARK   67  A    between atoms: _183  and  _184
REMARK   68  A    between atoms: _183  and  _186
REMARK   69  A    between atoms: _186  and  _187
REMARK   70  A    between atoms: _188  and  ZN_724
REMARK   71  A    between atoms: _192  and  _194
REMARK   72  A    between atoms: _194  and  _195
REMARK   73  A    between atoms: _194  and  _197
REMARK   74  A    between atoms: _197  and  _198
REMARK   75  A    between atoms: _201  and  _203
REMARK   76  A    between atoms: _203  and  _204
REMARK   77  A    between atoms: _203  and  _206
REMARK   78  A    between atoms: _206  and  _207
REMARK   79  A    between atoms: _207  and  _208
REMARK   80  A    between atoms: _211  and  _213
REMARK   81  A    between atoms: _213  and  _214
REMARK   82  A    between atoms: _213  and  _216
REMARK   83  A    between atoms: _216  and  _217
REMARK   84  A    between atoms: _227  and  _229
REMARK   85  A    between atoms: _229  and  _230
REMARK   86  A    between atoms: _232  and  _234
REMARK   87  A    between atoms: _234  and  _235
REMARK   88  A    between atoms: _234  and  _237
REMARK   89  A    between atoms: _237  and  _238
REMARK   90  A    between atoms: _241  and  _243
REMARK   91  A    between atoms: _243  and  _244
REMARK   92  A    between atoms: _243  and  _246
REMARK   93  A    between atoms: _246  and  _247
REMARK   94  A    between atoms: _252  and  _254
REMARK   95  A    between atoms: _254  and  _255
REMARK   96  A    between atoms: _254  and  _257
REMARK   97  A    between atoms: _257  and  _258
REMARK   98  A    between atoms: _261  and  _263
REMARK   99  A    between atoms: _263  and  _264
REMARK  100  A    between atoms: _263  and  _266
REMARK  101  A    between atoms: _266  and  _267
REMARK  102  A    between atoms: _273  and  _275
REMARK  103  A    between atoms: _275  and  _276
REMARK  104  A    between atoms: _275  and  _278
REMARK  105  A    between atoms: _278  and  _279
REMARK  106  A    between atoms: _282  and  _284
REMARK  107  A    between atoms: _284  and  _285
REMARK  108  A    between atoms: _284  and  _287
REMARK  109  A    between atoms: _290  and  _292
REMARK  110  A    between atoms: _292  and  _293
REMARK  111  A    between atoms: _296  and  _298
REMARK  112  A    between atoms: _298  and  _299
REMARK  113  A    between atoms: _302  and  _304
REMARK  114  A    between atoms: _315  and  _318
REMARK  115  A    between atoms: _318  and  _319
REMARK  116  A    between atoms: _319  and  _320
REMARK  117  A    between atoms: _325  and  _328
REMARK  118  A    between atoms: _328  and  _329
REMARK  119  A    between atoms: _339  and  _340
REMARK  120  A    between atoms: _348  and  _350
REMARK  121  A    between atoms: _350  and  _351
REMARK  122  A    between atoms: _350  and  _353
REMARK  123  A    between atoms: _353  and  _354
REMARK  124  A    between atoms: _356  and  _358
REMARK  125  A    between atoms: _358  and  _359
REMARK  126  A    between atoms: _358  and  _361
REMARK  127  A    between atoms: _361  and  _362
REMARK  128  A    between atoms: _366  and  ZN_723
REMARK  129  A    between atoms: _367  and  _369
REMARK  130  A    between atoms: _369  and  _370
REMARK  131  A    between atoms: _369  and  _372
REMARK  132  A    between atoms: _372  and  _373
REMARK  133  A    between atoms: _375  and  _377
REMARK  134  A    between atoms: _377  and  _378
REMARK  135  A    between atoms: _377  and  _380
REMARK  136  A    between atoms: _380  and  _381
REMARK  137  A    between atoms: _386  and  _388
REMARK  138  A    between atoms: _388  and  _389
REMARK  139  A    between atoms: _388  and  _391
REMARK  140  A    between atoms: _391  and  _392
REMARK  141  A    between atoms: _395  and  _397
REMARK  142  A    between atoms: _397  and  _398
REMARK  143  A    between atoms: _397  and  _400
REMARK  144  A    between atoms: _400  and  _401
REMARK  145  A    between atoms: _401  and  _402
REMARK  146  A    between atoms: _405  and  _407
REMARK  147  A    between atoms: _407  and  _408
REMARK  148  A    between atoms: _411  and  _413
REMARK  149  A    between atoms: _413  and  _414
REMARK  150  A    between atoms: _413  and  _416
REMARK  151  A    between atoms: _416  and  _417
REMARK  152  A    between atoms: _420  and  _422
REMARK  153  A    between atoms: _422  and  _423
REMARK  154  A    between atoms: _422  and  _425
REMARK  155  A    between atoms: _425  and  _426
REMARK  156  A    between atoms: _426  and  _427
REMARK  157  A    between atoms: _429  and  _431
REMARK  158  A    between atoms: _431  and  _432
REMARK  159  A    between atoms: _431  and  _434
REMARK  160  A    between atoms: _434  and  _435
REMARK  161  A    between atoms: _440  and  _441
REMARK  162  A    between atoms: _444  and  _445
REMARK  163  A    between atoms: _450  and  _452
REMARK  164  A    between atoms: _452  and  _453
REMARK  165  A    between atoms: _452  and  _455
REMARK  166  A    between atoms: _455  and  _456
REMARK  167  A    between atoms: _459  and  _461
REMARK  168  A    between atoms: _461  and  _462
REMARK  169  A    between atoms: _461  and  _464
REMARK  170  A    between atoms: _464  and  _465
REMARK  171  A    between atoms: _470  and  _471
REMARK  172  A    between atoms: _473  and  _475
REMARK  173  A    between atoms: _475  and  _476
REMARK  174  A    between atoms: _475  and  _478
REMARK  175  A    between atoms: _478  and  _479
REMARK  176  A    between atoms: _484  and  _486
REMARK  177  A    between atoms: _486  and  _487
REMARK  178  A    between atoms: _486  and  _489
REMARK  179  A    between atoms: _489  and  _490
REMARK  180  A    between atoms: _492  and  _494
REMARK  181  A    between atoms: _494  and  _495
REMARK  182  A    between atoms: _494  and  _497
REMARK  183  A    between atoms: _497  and  _498
REMARK  184  A    between atoms: _501  and  _503
REMARK  185  A    between atoms: _503  and  _504
REMARK  186  A    between atoms: _503  and  _506
REMARK  187  A    between atoms: _506  and  _507
REMARK  188  A    between atoms: _510  and  _512
REMARK  189  A    between atoms: _512  and  _513
REMARK  190  A    between atoms: _512  and  _515
REMARK  191  A    between atoms: _515  and  _516
REMARK  192  A    between atoms: _519  and  _521
REMARK  193  A    between atoms: _521  and  _522
REMARK  194  A    between atoms: _521  and  _524
REMARK  195  A    between atoms: _524  and  _525
REMARK  196  A    between atoms: _528  and  _530
REMARK  197  A    between atoms: _530  and  _531
REMARK  198  A    between atoms: _530  and  _533
REMARK  199  A    between atoms: _533  and  _534
REMARK  200  A    between atoms: _534  and  _535
REMARK  201  A    between atoms: _535  and  _536
REMARK  202  A    between atoms: _545  and  _547
REMARK  203  A    between atoms: _547  and  _548
REMARK  204  A    between atoms: _547  and  _550
REMARK  205  A    between atoms: _550  and  _551
REMARK  206  A    between atoms: _557  and  _559
REMARK  207  A    between atoms: _559  and  _560
REMARK  208  A    between atoms: _559  and  _562
REMARK  209  A    between atoms: _562  and  _563
REMARK  210  A    between atoms: _563  and  _564
REMARK  211  A    between atoms: _564  and  _565
REMARK  212  A    between atoms: _574  and  _576
REMARK  213  A    between atoms: _576  and  _577
REMARK  214  A    between atoms: _576  and  _579
REMARK  215  A    between atoms: _579  and  _580
REMARK  216  A    between atoms: _582  and  _584
REMARK  217  A    between atoms: _584  and  _585
REMARK  218  A    between atoms: _584  and  _587
REMARK  219  A    between atoms: _587  and  _588
REMARK  220  A    between atoms: _591  and  _593
REMARK  221  A    between atoms: _593  and  _594
REMARK  222  A    between atoms: _593  and  _596
REMARK  223  A    between atoms: _596  and  _597
REMARK  224  A    between atoms: _601  and  _602
REMARK  225  A    between atoms: _607  and  _609
REMARK  226  A    between atoms: _609  and  _610
REMARK  227  A    between atoms: _609  and  _612
REMARK  228  A    between atoms: _612  and  _613
REMARK  229  A    between atoms: _618  and  _620
REMARK  230  A    between atoms: _620  and  _621
REMARK  231  A    between atoms: _620  and  _623
REMARK  232  A    between atoms: _623  and  _624
REMARK  233  A    between atoms: _627  and  _629
REMARK  234  A    between atoms: _629  and  _630
REMARK  235  A    between atoms: _629  and  _632
REMARK  236  A    between atoms: _632  and  _633
REMARK  237  A    between atoms: _639  and  _641
REMARK  238  A    between atoms: _641  and  _642
REMARK  239  A    between atoms: _641  and  _644
REMARK  240  A    between atoms: _644  and  _645
REMARK  241  A    between atoms: _650  and  _652
REMARK  242  A    between atoms: _652  and  _653
REMARK  243  A    between atoms: _652  and  _655
REMARK  244  A    between atoms: _655  and  _656
REMARK  245  A    between atoms: _658  and  _660
REMARK  246  A    between atoms: _660  and  _661
REMARK  247  A    between atoms: _664  and  _666
REMARK  248  A    between atoms: _666  and  _667
REMARK  249  A    between atoms: _666  and  _669
REMARK  250  A    between atoms: _669  and  _670
REMARK  251  A    between atoms: _675  and  _677
REMARK  252  A    between atoms: _677  and  _678
REMARK  253  A    between atoms: _677  and  _680
REMARK  254  A    between atoms: _680  and  _681
REMARK  255  A    between atoms: _684  and  _686
REMARK  256  A    between atoms: _686  and  _687
REMARK  257  A    between atoms: _686  and  _689
REMARK  258  A    between atoms: _689  and  _690
REMARK  259  A    between atoms: _690  and  _691
REMARK  260  A    between atoms: _693  and  _695
REMARK  261  A    between atoms: _695  and  _696
REMARK  262  A    between atoms: _695  and  _698
REMARK  263  A    between atoms: _698  and  _699
REMARK  264  A    between atoms: _704  and  _705
REMARK  265  A    between atoms: _708  and  _709
REMARK  266  A    between atoms: _714  and  _716
REMARK  267  A    between atoms: _716  and  _717
REMARK  268  A    between atoms: _716  and  _719
REMARK  269  A    between atoms: _719  and  _720
REMARK                            x       y       z     vdW  Elec       q    Type
REMARK                         _______ _______ _______ _____ _____    ______ ____
ROOT
ATOM      1  O   HOH     1      31.524  38.149  15.566  0.00  0.00    +0.000 OA
ENDROOT
TORSDOF 0
REMARK  Name = ../refined-set-2016/1hfs/1hfs_pocket.pdb
REMARK  269 active torsions:
REMARK  status: ('A' for Active; 'I' for Inactive)
REMARK    1  A    between atoms: _1  and  _3
REMARK    2  A    between atoms: _3  and  _4
REMARK    3  A    between atoms: _3  and  _6
REMARK    4  A    between atoms: _6  and  _7
REMARK    5  A    between atoms: _11  and  ZN_724
REMARK    6  A    between atoms: _12  and  _14
REMARK    7  A    between atoms: _14  and  _15
REMARK    8  A    between atoms: _14  and  _17
REMARK    9  A    between atoms: _17  and  _18
REMARK   10  A    between atoms: _18  and  _20
REMARK   11  A    between atoms: _20  and  ZN_724
REMARK   12  A    between atoms: _21  and  _23
REMARK   13  A    between atoms: _23  and  _24
REMARK   14  A    between atoms: _23  and  _26
REMARK   15  A    between atoms: _26  and  _27
REMARK   16  A    between atoms: _33  and  _35
REMARK   17  A    between atoms: _35  and  _36
REMARK   18  A    between atoms: _35  and  _38
REMARK   19  A    between atoms: _38  and  _39
REMARK   20  A    between atoms: _44  and  _45
REMARK   21  A    between atoms: _48  and  _49
REMARK   22  A    between atoms: _54  and  _56
REMARK   23  A    between atoms: _56  and  _57
REMARK   24  A    between atoms: _56  and  _59
REMARK   25  A    between atoms: _59  and  _60
REMARK   26  A    between atoms: _66  and  _68
REMARK   27  A    between atoms: _68  and  _69
REMARK   28  A    between atoms: _68  and  _71
REMARK   29  A    between atoms: _71  and  _72
REMARK   30  A    between atoms: _76  and  _77
REMARK   31  A    between atoms: _82  and  _84
REMARK   32  A    between atoms: _89  and  _92
REMARK   33  A    between atoms: _92  and  _93
REMARK   34  A    between atoms: _100  and  _103
REMARK   35  A    between atoms: _101  and  _106
REMARK   36  A    between atoms: _106  and  _108
REMARK   37  A    between atoms: _108  and  _109
REMARK   38  A    between atoms: _108  and  _111
REMARK   39  A    between atoms: _111  and  _112
REMARK   40  A    between atoms: _115  and  _117
REMARK   41  A    between atoms: _117  and  _118
REMARK   42  A    between atoms: _121  and  _123
REMARK   43  A    between atoms: _123  and  _124
REMARK   44  A    between atoms: _123  and  _126
REMARK   45  A    between atoms: _126  and  _127
REMARK   46  A    between atoms: _131  and  ZN_724
REMARK   47  A    between atoms: _132  and  _134
REMARK   48  A    between atoms: _134  and  _135
REMARK   49  A    between atoms: _138  and  _140
REMARK   50  A    between atoms: _140  and  _141
REMARK   51  A    between atoms: _140  and  _143
REMARK   52  A    between atoms: _143  and  _144
REMARK   53  A    between atoms: _149  and  _150
REMARK   54  A    between atoms: _152  and  _154
REMARK   55  A    between atoms: _154  and  _155
REMARK   56  A    between atoms: _158  and  _160
REMARK   57  A    between atoms: _160  and  _161
REMARK   58  A    between atoms: _160  and  _163
REMARK   59  A    between atoms: _163  and  _164
REMARK   60  A    between atoms: _167  and  _169
REMARK   61  A    between atoms: _169  and  _170
REMARK   62  A    between atoms: _172  and  _174
REMARK   63  A    between atoms: _174  and  _175
REMARK   64  A    between atoms: _174  and  _177
REMARK   65  A    between atoms: _177  and  _178
REMARK   66  A    between atoms: _181  and  _183
REMARK   67  A    between atoms: _183  and  _184
REMARK   68  A    between atoms: _183  and  _186
REMARK   69  A    between atoms: _186  and  _187
REMARK   70  A    between atoms: _188  and  ZN_724
REMARK   71  A    between atoms: _192  and  _194
REMARK   72  A    between atoms: _194  and  _195
REMARK   73  A    between atoms: _194  and  _197
REMARK   74  A    between atoms: _197  and  _198
REMARK   75  A    between atoms: _201  and  _203
REMARK   76  A    between atoms: _203  and  _204
REMARK   77  A    between atoms: _203  and  _206
REMARK   78  A    between atoms: _206  and  _207
REMARK   79  A    between atoms: _207  and  _208
REMARK   80  A    between atoms: _211  and  _213
REMARK   81  A    between atoms: _213  and  _214
REMARK   82  A    between atoms: _213  and  _216
REMARK   83  A    between atoms: _216  and  _217
REMARK   84  A    between atoms: _227  and  _229
REMARK   85  A    between atoms: _229  and  _230
REMARK   86  A    between atoms: _232  and  _234
REMARK   87  A    between atoms: _234  and  _235
REMARK   88  A    between atoms: _234  and  _237
REMARK   89  A    between atoms: _237  and  _238
REMARK   90  A    between atoms: _241  and  _243
REMARK   91  A    between atoms: _243  and  _244
REMARK   92  A    between atoms: _243  and  _246
REMARK   93  A    between atoms: _246  and  _247
REMARK   94  A    between atoms: _252  and  _254
REMARK   95  A    between atoms: _254  and  _255
REMARK   96  A    between atoms: _254  and  _257
REMARK   97  A    between atoms: _257  and  _258
REMARK   98  A    between atoms: _261  and  _263
REMARK   99  A    between atoms: _263  and  _264
REMARK  100  A    between atoms: _263  and  _266
REMARK  101  A    between atoms: _266  and  _267
REMARK  102  A    between atoms: _273  and  _275
REMARK  103  A    between atoms: _275  and  _276
REMARK  104  A    between atoms: _275  and  _278
REMARK  105  A    between atoms: _278  and  _279
REMARK  106  A    between atoms: _282  and  _284
REMARK  107  A    between atoms: _284  and  _285
REMARK  108  A    between atoms: _284  and  _287
REMARK  109  A    between atoms: _290  and  _292
REMARK  110  A    between atoms: _292  and  _293
REMARK  111  A    between atoms: _296  and  _298
REMARK  112  A    between atoms: _298  and  _299
REMARK  113  A    between atoms: _302  and  _304
REMARK  114  A    between atoms: _315  and  _318
REMARK  115  A    between atoms: _318  and  _319
REMARK  116  A    between atoms: _319  and  _320
REMARK  117  A    between atoms: _325  and  _328
REMARK  118  A    between atoms: _328  and  _329
REMARK  119  A    between atoms: _339  and  _340
REMARK  120  A    between atoms: _348  and  _350
REMARK  121  A    between atoms: _350  and  _351
REMARK  122  A    between atoms: _350  and  _353
REMARK  123  A    between atoms: _353  and  _354
REMARK  124  A    between atoms: _356  and  _358
REMARK  125  A    between atoms: _358  and  _359
REMARK  126  A    between atoms: _358  and  _361
REMARK  127  A    between atoms: _361  and  _362
REMARK  128  A    between atoms: _366  and  ZN_723
REMARK  129  A    between atoms: _367  and  _369
REMARK  130  A    between atoms: _369  and  _370
REMARK  131  A    between atoms: _369  and  _372
REMARK  132  A    between atoms: _372  and  _373
REMARK  133  A    between atoms: _375  and  _377
REMARK  134  A    between atoms: _377  and  _378
REMARK  135  A    between atoms: _377  and  _380
REMARK  136  A    between atoms: _380  and  _381
REMARK  137  A    between atoms: _386  and  _388
REMARK  138  A    between atoms: _388  and  _389
REMARK  139  A    between atoms: _388  and  _391
REMARK  140  A    between atoms: _391  and  _392
REMARK  141  A    between atoms: _395  and  _397
REMARK  142  A    between atoms: _397  and  _398
REMARK  143  A    between atoms: _397  and  _400
REMARK  144  A    between atoms: _400  and  _401
REMARK  145  A    between atoms: _401  and  _402
REMARK  146  A    between atoms: _405  and  _407
REMARK  147  A    between atoms: _407  and  _408
REMARK  148  A    between atoms: _411  and  _413
REMARK  149  A    between atoms: _413  and  _414
REMARK  150  A    between atoms: _413  and  _416
REMARK  151  A    between atoms: _416  and  _417
REMARK  152  A    between atoms: _420  and  _422
REMARK  153  A    between atoms: _422  and  _423
REMARK  154  A    between atoms: _422  and  _425
REMARK  155  A    between atoms: _425  and  _426
REMARK  156  A    between atoms: _426  and  _427
REMARK  157  A    between atoms: _429  and  _431
REMARK  158  A    between atoms: _431  and  _432
REMARK  159  A    between atoms: _431  and  _434
REMARK  160  A    between atoms: _434  and  _435
REMARK  161  A    between atoms: _440  and  _441
REMARK  162  A    between atoms: _444  and  _445
REMARK  163  A    between atoms: _450  and  _452
REMARK  164  A    between atoms: _452  and  _453
REMARK  165  A    between atoms: _452  and  _455
REMARK  166  A    between atoms: _455  and  _456
REMARK  167  A    between atoms: _459  and  _461
REMARK  168  A    between atoms: _461  and  _462
REMARK  169  A    between atoms: _461  and  _464
REMARK  170  A    between atoms: _464  and  _465
REMARK  171  A    between atoms: _470  and  _471
REMARK  172  A    between atoms: _473  and  _475
REMARK  173  A    between atoms: _475  and  _476
REMARK  174  A    between atoms: _475  and  _478
REMARK  175  A    between atoms: _478  and  _479
REMARK  176  A    between atoms: _484  and  _486
REMARK  177  A    between atoms: _486  and  _487
REMARK  178  A    between atoms: _486  and  _489
REMARK  179  A    between atoms: _489  and  _490
REMARK  180  A    between atoms: _492  and  _494
REMARK  181  A    between atoms: _494  and  _495
REMARK  182  A    between atoms: _494  and  _497
REMARK  183  A    between atoms: _497  and  _498
REMARK  184  A    between atoms: _501  and  _503
REMARK  185  A    between atoms: _503  and  _504
REMARK  186  A    between atoms: _503  and  _506
REMARK  187  A    between atoms: _506  and  _507
REMARK  188  A    between atoms: _510  and  _512
REMARK  189  A    between atoms: _512  and  _513
REMARK  190  A    between atoms: _512  and  _515
REMARK  191  A    between atoms: _515  and  _516
REMARK  192  A    between atoms: _519  and  _521
REMARK  193  A    between atoms: _521  and  _522
REMARK  194  A    between atoms: _521  and  _524
REMARK  195  A    between atoms: _524  and  _525
REMARK  196  A    between atoms: _528  and  _530
REMARK  197  A    between atoms: _530  and  _531
REMARK  198  A    between atoms: _530  and  _533
REMARK  199  A    between atoms: _533  and  _534
REMARK  200  A    between atoms: _534  and  _535
REMARK  201  A    between atoms: _535  and  _536
REMARK  202  A    between atoms: _545  and  _547
REMARK  203  A    between atoms: _547  and  _548
REMARK  204  A    between atoms: _547  and  _550
REMARK  205  A    between atoms: _550  and  _551
REMARK  206  A    between atoms: _557  and  _559
REMARK  207  A    between atoms: _559  and  _560
REMARK  208  A    between atoms: _559  and  _562
REMARK  209  A    between atoms: _562  and  _563
REMARK  210  A    between atoms: _563  and  _564
REMARK  211  A    between atoms: _564  and  _565
REMARK  212  A    between atoms: _574  and  _576
REMARK  213  A    between atoms: _576  and  _577
REMARK  214  A    between atoms: _576  and  _579
REMARK  215  A    between atoms: _579  and  _580
REMARK  216  A    between atoms: _582  and  _584
REMARK  217  A    between atoms: _584  and  _585
REMARK  218  A    between atoms: _584  and  _587
REMARK  219  A    between atoms: _587  and  _588
REMARK  220  A    between atoms: _591  and  _593
REMARK  221  A    between atoms: _593  and  _594
REMARK  222  A    between atoms: _593  and  _596
REMARK  223  A    between atoms: _596  and  _597
REMARK  224  A    between atoms: _601  and  _602
REMARK  225  A    between atoms: _607  and  _609
REMARK  226  A    between atoms: _609  and  _610
REMARK  227  A    between atoms: _609  and  _612
REMARK  228  A    between atoms: _612  and  _613
REMARK  229  A    between atoms: _618  and  _620
REMARK  230  A    between atoms: _620  and  _621
REMARK  231  A    between atoms: _620  and  _623
REMARK  232  A    between atoms: _623  and  _624
REMARK  233  A    between atoms: _627  and  _629
REMARK  234  A    between atoms: _629  and  _630
REMARK  235  A    between atoms: _629  and  _632
REMARK  236  A    between atoms: _632  and  _633
REMARK  237  A    between atoms: _639  and  _641
REMARK  238  A    between atoms: _641  and  _642
REMARK  239  A    between atoms: _641  and  _644
REMARK  240  A    between atoms: _644  and  _645
REMARK  241  A    between atoms: _650  and  _652
REMARK  242  A    between atoms: _652  and  _653
REMARK  243  A    between atoms: _652  and  _655
REMARK  244  A    between atoms: _655  and  _656
REMARK  245  A    between atoms: _658  and  _660
REMARK  246  A    between atoms: _660  and  _661
REMARK  247  A    between atoms: _664  and  _666
REMARK  248  A    between atoms: _666  and  _667
REMARK  249  A    between atoms: _666  and  _669
REMARK  250  A    between atoms: _669  and  _670
REMARK  251  A    between atoms: _675  and  _677
REMARK  252  A    between atoms: _677  and  _678
REMARK  253  A    between atoms: _677  and  _680
REMARK  254  A    between atoms: _680  and  _681
REMARK  255  A    between atoms: _684  and  _686
REMARK  256  A    between atoms: _686  and  _687
REMARK  257  A    between atoms: _686  and  _689
REMARK  258  A    between atoms: _689  and  _690
REMARK  259  A    between atoms: _690  and  _691
REMARK  260  A    between atoms: _693  and  _695
REMARK  261  A    between atoms: _695  and  _696
REMARK  262  A    between atoms: _695  and  _698
REMARK  263  A    between atoms: _698  and  _699
REMARK  264  A    between atoms: _704  and  _705
REMARK  265  A    between atoms: _708  and  _709
REMARK  266  A    between atoms: _714  and  _716
REMARK  267  A    between atoms: _716  and  _717
REMARK  268  A    between atoms: _716  and  _719
REMARK  269  A    between atoms: _719  and  _720
REMARK                            x       y       z     vdW  Elec       q    Type
REMARK                         _______ _______ _______ _____ _____    ______ ____
ROOT
ATOM      1  O   HOH     1      33.087  43.536  29.489  0.00  0.00    +0.000 OA
ENDROOT
TORSDOF 0
REMARK  Name = ../refined-set-2016/1hfs/1hfs_pocket.pdb
REMARK  269 active torsions:
REMARK  status: ('A' for Active; 'I' for Inactive)
REMARK    1  A    between atoms: _1  and  _3
REMARK    2  A    between atoms: _3  and  _4
REMARK    3  A    between atoms: _3  and  _6
REMARK    4  A    between atoms: _6  and  _7
REMARK    5  A    between atoms: _11  and  ZN_724
REMARK    6  A    between atoms: _12  and  _14
REMARK    7  A    between atoms: _14  and  _15
REMARK    8  A    between atoms: _14  and  _17
REMARK    9  A    between atoms: _17  and  _18
REMARK   10  A    between atoms: _18  and  _20
REMARK   11  A    between atoms: _20  and  ZN_724
REMARK   12  A    between atoms: _21  and  _23
REMARK   13  A    between atoms: _23  and  _24
REMARK   14  A    between atoms: _23  and  _26
REMARK   15  A    between atoms: _26  and  _27
REMARK   16  A    between atoms: _33  and  _35
REMARK   17  A    between atoms: _35  and  _36
REMARK   18  A    between atoms: _35  and  _38
REMARK   19  A    between atoms: _38  and  _39
REMARK   20  A    between atoms: _44  and  _45
REMARK   21  A    between atoms: _48  and  _49
REMARK   22  A    between atoms: _54  and  _56
REMARK   23  A    between atoms: _56  and  _57
REMARK   24  A    between atoms: _56  and  _59
REMARK   25  A    between atoms: _59  and  _60
REMARK   26  A    between atoms: _66  and  _68
REMARK   27  A    between atoms: _68  and  _69
REMARK   28  A    between atoms: _68  and  _71
REMARK   29  A    between atoms: _71  and  _72
REMARK   30  A    between atoms: _76  and  _77
REMARK   31  A    between atoms: _82  and  _84
REMARK   32  A    between atoms: _89  and  _92
REMARK   33  A    between atoms: _92  and  _93
REMARK   34  A    between atoms: _100  and  _103
REMARK   35  A    between atoms: _101  and  _106
REMARK   36  A    between atoms: _106  and  _108
REMARK   37  A    between atoms: _108  and  _109
REMARK   38  A    between atoms: _108  and  _111
REMARK   39  A    between atoms: _111  and  _112
REMARK   40  A    between atoms: _115  and  _117
REMARK   41  A    between atoms: _117  and  _118
REMARK   42  A    between atoms: _121  and  _123
REMARK   43  A    between atoms: _123  and  _124
REMARK   44  A    between atoms: _123  and  _126
REMARK   45  A    between atoms: _126  and  _127
REMARK   46  A    between atoms: _131  and  ZN_724
REMARK   47  A    between atoms: _132  and  _134
REMARK   48  A    between atoms: _134  and  _135
REMARK   49  A    between atoms: _138  and  _140
REMARK   50  A    between atoms: _140  and  _141
REMARK   51  A    between atoms: _140  and  _143
REMARK   52  A    between atoms: _143  and  _144
REMARK   53  A    between atoms: _149  and  _150
REMARK   54  A    between atoms: _152  and  _154
REMARK   55  A    between atoms: _154  and  _155
REMARK   56  A    between atoms: _158  and  _160
REMARK   57  A    between atoms: _160  and  _161
REMARK   58  A    between atoms: _160  and  _163
REMARK   59  A    between atoms: _163  and  _164
REMARK   60  A    between atoms: _167  and  _169
REMARK   61  A    between atoms: _169  and  _170
REMARK   62  A    between atoms: _172  and  _174
REMARK   63  A    between atoms: _174  and  _175
REMARK   64  A    between atoms: _174  and  _177
REMARK   65  A    between atoms: _177  and  _178
REMARK   66  A    between atoms: _181  and  _183
REMARK   67  A    between atoms: _183  and  _184
REMARK   68  A    between atoms: _183  and  _186
REMARK   69  A    between atoms: _186  and  _187
REMARK   70  A    between atoms: _188  and  ZN_724
REMARK   71  A    between atoms: _192  and  _194
REMARK   72  A    between atoms: _194  and  _195
REMARK   73  A    between atoms: _194  and  _197
REMARK   74  A    between atoms: _197  and  _198
REMARK   75  A    between atoms: _201  and  _203
REMARK   76  A    between atoms: _203  and  _204
REMARK   77  A    between atoms: _203  and  _206
REMARK   78  A    between atoms: _206  and  _207
REMARK   79  A    between atoms: _207  and  _208
REMARK   80  A    between atoms: _211  and  _213
REMARK   81  A    between atoms: _213  and  _214
REMARK   82  A    between atoms: _213  and  _216
REMARK   83  A    between atoms: _216  and  _217
REMARK   84  A    between atoms: _227  and  _229
REMARK   85  A    between atoms: _229  and  _230
REMARK   86  A    between atoms: _232  and  _234
REMARK   87  A    between atoms: _234  and  _235
REMARK   88  A    between atoms: _234  and  _237
REMARK   89  A    between atoms: _237  and  _238
REMARK   90  A    between atoms: _241  and  _243
REMARK   91  A    between atoms: _243  and  _244
REMARK   92  A    between atoms: _243  and  _246
REMARK   93  A    between atoms: _246  and  _247
REMARK   94  A    between atoms: _252  and  _254
REMARK   95  A    between atoms: _254  and  _255
REMARK   96  A    between atoms: _254  and  _257
REMARK   97  A    between atoms: _257  and  _258
REMARK   98  A    between atoms: _261  and  _263
REMARK   99  A    between atoms: _263  and  _264
REMARK  100  A    between atoms: _263  and  _266
REMARK  101  A    between atoms: _266  and  _267
REMARK  102  A    between atoms: _273  and  _275
REMARK  103  A    between atoms: _275  and  _276
REMARK  104  A    between atoms: _275  and  _278
REMARK  105  A    between atoms: _278  and  _279
REMARK  106  A    between atoms: _282  and  _284
REMARK  107  A    between atoms: _284  and  _285
REMARK  108  A    between atoms: _284  and  _287
REMARK  109  A    between atoms: _290  and  _292
REMARK  110  A    between atoms: _292  and  _293
REMARK  111  A    between atoms: _296  and  _298
REMARK  112  A    between atoms: _298  and  _299
REMARK  113  A    between atoms: _302  and  _304
REMARK  114  A    between atoms: _315  and  _318
REMARK  115  A    between atoms: _318  and  _319
REMARK  116  A    between atoms: _319  and  _320
REMARK  117  A    between atoms: _325  and  _328
REMARK  118  A    between atoms: _328  and  _329
REMARK  119  A    between atoms: _339  and  _340
REMARK  120  A    between atoms: _348  and  _350
REMARK  121  A    between atoms: _350  and  _351
REMARK  122  A    between atoms: _350  and  _353
REMARK  123  A    between atoms: _353  and  _354
REMARK  124  A    between atoms: _356  and  _358
REMARK  125  A    between atoms: _358  and  _359
REMARK  126  A    between atoms: _358  and  _361
REMARK  127  A    between atoms: _361  and  _362
REMARK  128  A    between atoms: _366  and  ZN_723
REMARK  129  A    between atoms: _367  and  _369
REMARK  130  A    between atoms: _369  and  _370
REMARK  131  A    between atoms: _369  and  _372
REMARK  132  A    between atoms: _372  and  _373
REMARK  133  A    between atoms: _375  and  _377
REMARK  134  A    between atoms: _377  and  _378
REMARK  135  A    between atoms: _377  and  _380
REMARK  136  A    between atoms: _380  and  _381
REMARK  137  A    between atoms: _386  and  _388
REMARK  138  A    between atoms: _388  and  _389
REMARK  139  A    between atoms: _388  and  _391
REMARK  140  A    between atoms: _391  and  _392
REMARK  141  A    between atoms: _395  and  _397
REMARK  142  A    between atoms: _397  and  _398
REMARK  143  A    between atoms: _397  and  _400
REMARK  144  A    between atoms: _400  and  _401
REMARK  145  A    between atoms: _401  and  _402
REMARK  146  A    between atoms: _405  and  _407
REMARK  147  A    between atoms: _407  and  _408
REMARK  148  A    between atoms: _411  and  _413
REMARK  149  A    between atoms: _413  and  _414
REMARK  150  A    between atoms: _413  and  _416
REMARK  151  A    between atoms: _416  and  _417
REMARK  152  A    between atoms: _420  and  _422
REMARK  153  A    between atoms: _422  and  _423
REMARK  154  A    between atoms: _422  and  _425
REMARK  155  A    between atoms: _425  and  _426
REMARK  156  A    between atoms: _426  and  _427
REMARK  157  A    between atoms: _429  and  _431
REMARK  158  A    between atoms: _431  and  _432
REMARK  159  A    between atoms: _431  and  _434
REMARK  160  A    between atoms: _434  and  _435
REMARK  161  A    between atoms: _440  and  _441
REMARK  162  A    between atoms: _444  and  _445
REMARK  163  A    between atoms: _450  and  _452
REMARK  164  A    between atoms: _452  and  _453
REMARK  165  A    between atoms: _452  and  _455
REMARK  166  A    between atoms: _455  and  _456
REMARK  167  A    between atoms: _459  and  _461
REMARK  168  A    between atoms: _461  and  _462
REMARK  169  A    between atoms: _461  and  _464
REMARK  170  A    between atoms: _464  and  _465
REMARK  171  A    between atoms: _470  and  _471
REMARK  172  A    between atoms: _473  and  _475
REMARK  173  A    between atoms: _475  and  _476
REMARK  174  A    between atoms: _475  and  _478
REMARK  175  A    between atoms: _478  and  _479
REMARK  176  A    between atoms: _484  and  _486
REMARK  177  A    between atoms: _486  and  _487
REMARK  178  A    between atoms: _486  and  _489
REMARK  179  A    between atoms: _489  and  _490
REMARK  180  A    between atoms: _492  and  _494
REMARK  181  A    between atoms: _494  and  _495
REMARK  182  A    between atoms: _494  and  _497
REMARK  183  A    between atoms: _497  and  _498
REMARK  184  A    between atoms: _501  and  _503
REMARK  185  A    between atoms: _503  and  _504
REMARK  186  A    between atoms: _503  and  _506
REMARK  187  A    between atoms: _506  and  _507
REMARK  188  A    between atoms: _510  and  _512
REMARK  189  A    between atoms: _512  and  _513
REMARK  190  A    between atoms: _512  and  _515
REMARK  191  A    between atoms: _515  and  _516
REMARK  192  A    between atoms: _519  and  _521
REMARK  193  A    between atoms: _521  and  _522
REMARK  194  A    between atoms: _521  and  _524
REMARK  195  A    between atoms: _524  and  _525
REMARK  196  A    between atoms: _528  and  _530
REMARK  197  A    between atoms: _530  and  _531
REMARK  198  A    between atoms: _530  and  _533
REMARK  199  A    between atoms: _533  and  _534
REMARK  200  A    between atoms: _534  and  _535
REMARK  201  A    between atoms: _535  and  _536
REMARK  202  A    between atoms: _545  and  _547
REMARK  203  A    between atoms: _547  and  _548
REMARK  204  A    between atoms: _547  and  _550
REMARK  205  A    between atoms: _550  and  _551
REMARK  206  A    between atoms: _557  and  _559
REMARK  207  A    between atoms: _559  and  _560
REMARK  208  A    between atoms: _559  and  _562
REMARK  209  A    between atoms: _562  and  _563
REMARK  210  A    between atoms: _563  and  _564
REMARK  211  A    between atoms: _564  and  _565
REMARK  212  A    between atoms: _574  and  _576
REMARK  213  A    between atoms: _576  and  _577
REMARK  214  A    between atoms: _576  and  _579
REMARK  215  A    between atoms: _579  and  _580
REMARK  216  A    between atoms: _582  and  _584
REMARK  217  A    between atoms: _584  and  _585
REMARK  218  A    between atoms: _584  and  _587
REMARK  219  A    between atoms: _587  and  _588
REMARK  220  A    between atoms: _591  and  _593
REMARK  221  A    between atoms: _593  and  _594
REMARK  222  A    between atoms: _593  and  _596
REMARK  223  A    between atoms: _596  and  _597
REMARK  224  A    between atoms: _601  and  _602
REMARK  225  A    between atoms: _607  and  _609
REMARK  226  A    between atoms: _609  and  _610
REMARK  227  A    between atoms: _609  and  _612
REMARK  228  A    between atoms: _612  and  _613
REMARK  229  A    between atoms: _618  and  _620
REMARK  230  A    between atoms: _620  and  _621
REMARK  231  A    between atoms: _620  and  _623
REMARK  232  A    between atoms: _623  and  _624
REMARK  233  A    between atoms: _627  and  _629
REMARK  234  A    between atoms: _629  and  _630
REMARK  235  A    between atoms: _629  and  _632
REMARK  236  A    between atoms: _632  and  _633
REMARK  237  A    between atoms: _639  and  _641
REMARK  238  A    between atoms: _641  and  _642
REMARK  239  A    between atoms: _641  and  _644
REMARK  240  A    between atoms: _644  and  _645
REMARK  241  A    between atoms: _650  and  _652
REMARK  242  A    between atoms: _652  and  _653
REMARK  243  A    between atoms: _652  and  _655
REMARK  244  A    between atoms: _655  and  _656
REMARK  245  A    between atoms: _658  and  _660
REMARK  246  A    between atoms: _660  and  _661
REMARK  247  A    between atoms: _664  and  _666
REMARK  248  A    between atoms: _666  and  _667
REMARK  249  A    between atoms: _666  and  _669
REMARK  250  A    between atoms: _669  and  _670
REMARK  251  A    between atoms: _675  and  _677
REMARK  252  A    between atoms: _677  and  _678
REMARK  253  A    between atoms: _677  and  _680
REMARK  254  A    between atoms: _680  and  _681
REMARK  255  A    between atoms: _684  and  _686
REMARK  256  A    between atoms: _686  and  _687
REMARK  257  A    between atoms: _686  and  _689
REMARK  258  A    between atoms: _689  and  _690
REMARK  259  A    between atoms: _690  and  _691
REMARK  260  A    between atoms: _693  and  _695
REMARK  261  A    between atoms: _695  and  _696
REMARK  262  A    between atoms: _695  and  _698
REMARK  263  A    between atoms: _698  and  _699
REMARK  264  A    between atoms: _704  and  _705
REMARK  265  A    between atoms: _708  and  _709
REMARK  266  A    between atoms: _714  and  _716
REMARK  267  A    between atoms: _716  and  _717
REMARK  268  A    between atoms: _716  and  _719
REMARK  269  A    between atoms: _719  and  _720
REMARK                            x       y       z     vdW  Elec       q    Type
REMARK                         _______ _______ _______ _____ _____    ______ ____
ROOT
ATOM      1  O   HOH     1      24.453  45.701  18.754  0.00  0.00    +0.000 OA
ENDROOT
TORSDOF 0
REMARK  Name = ../refined-set-2016/1hfs/1hfs_pocket.pdb
REMARK  269 active torsions:
REMARK  status: ('A' for Active; 'I' for Inactive)
REMARK    1  A    between atoms: _1  and  _3
REMARK    2  A    between atoms: _3  and  _4
REMARK    3  A    between atoms: _3  and  _6
REMARK    4  A    between atoms: _6  and  _7
REMARK    5  A    between atoms: _11  and  ZN_724
REMARK    6  A    between atoms: _12  and  _14
REMARK    7  A    between atoms: _14  and  _15
REMARK    8  A    between atoms: _14  and  _17
REMARK    9  A    between atoms: _17  and  _18
REMARK   10  A    between atoms: _18  and  _20
REMARK   11  A    between atoms: _20  and  ZN_724
REMARK   12  A    between atoms: _21  and  _23
REMARK   13  A    between atoms: _23  and  _24
REMARK   14  A    between atoms: _23  and  _26
REMARK   15  A    between atoms: _26  and  _27
REMARK   16  A    between atoms: _33  and  _35
REMARK   17  A    between atoms: _35  and  _36
REMARK   18  A    between atoms: _35  and  _38
REMARK   19  A    between atoms: _38  and  _39
REMARK   20  A    between atoms: _44  and  _45
REMARK   21  A    between atoms: _48  and  _49
REMARK   22  A    between atoms: _54  and  _56
REMARK   23  A    between atoms: _56  and  _57
REMARK   24  A    between atoms: _56  and  _59
REMARK   25  A    between atoms: _59  and  _60
REMARK   26  A    between atoms: _66  and  _68
REMARK   27  A    between atoms: _68  and  _69
REMARK   28  A    between atoms: _68  and  _71
REMARK   29  A    between atoms: _71  and  _72
REMARK   30  A    between atoms: _76  and  _77
REMARK   31  A    between atoms: _82  and  _84
REMARK   32  A    between atoms: _89  and  _92
REMARK   33  A    between atoms: _92  and  _93
REMARK   34  A    between atoms: _100  and  _103
REMARK   35  A    between atoms: _101  and  _106
REMARK   36  A    between atoms: _106  and  _108
REMARK   37  A    between atoms: _108  and  _109
REMARK   38  A    between atoms: _108  and  _111
REMARK   39  A    between atoms: _111  and  _112
REMARK   40  A    between atoms: _115  and  _117
REMARK   41  A    between atoms: _117  and  _118
REMARK   42  A    between atoms: _121  and  _123
REMARK   43  A    between atoms: _123  and  _124
REMARK   44  A    between atoms: _123  and  _126
REMARK   45  A    between atoms: _126  and  _127
REMARK   46  A    between atoms: _131  and  ZN_724
REMARK   47  A    between atoms: _132  and  _134
REMARK   48  A    between atoms: _134  and  _135
REMARK   49  A    between atoms: _138  and  _140
REMARK   50  A    between atoms: _140  and  _141
REMARK   51  A    between atoms: _140  and  _143
REMARK   52  A    between atoms: _143  and  _144
REMARK   53  A    between atoms: _149  and  _150
REMARK   54  A    between atoms: _152  and  _154
REMARK   55  A    between atoms: _154  and  _155
REMARK   56  A    between atoms: _158  and  _160
REMARK   57  A    between atoms: _160  and  _161
REMARK   58  A    between atoms: _160  and  _163
REMARK   59  A    between atoms: _163  and  _164
REMARK   60  A    between atoms: _167  and  _169
REMARK   61  A    between atoms: _169  and  _170
REMARK   62  A    between atoms: _172  and  _174
REMARK   63  A    between atoms: _174  and  _175
REMARK   64  A    between atoms: _174  and  _177
REMARK   65  A    between atoms: _177  and  _178
REMARK   66  A    between atoms: _181  and  _183
REMARK   67  A    between atoms: _183  and  _184
REMARK   68  A    between atoms: _183  and  _186
REMARK   69  A    between atoms: _186  and  _187
REMARK   70  A    between atoms: _188  and  ZN_724
REMARK   71  A    between atoms: _192  and  _194
REMARK   72  A    between atoms: _194  and  _195
REMARK   73  A    between atoms: _194  and  _197
REMARK   74  A    between atoms: _197  and  _198
REMARK   75  A    between atoms: _201  and  _203
REMARK   76  A    between atoms: _203  and  _204
REMARK   77  A    between atoms: _203  and  _206
REMARK   78  A    between atoms: _206  and  _207
REMARK   79  A    between atoms: _207  and  _208
REMARK   80  A    between atoms: _211  and  _213
REMARK   81  A    between atoms: _213  and  _214
REMARK   82  A    between atoms: _213  and  _216
REMARK   83  A    between atoms: _216  and  _217
REMARK   84  A    between atoms: _227  and  _229
REMARK   85  A    between atoms: _229  and  _230
REMARK   86  A    between atoms: _232  and  _234
REMARK   87  A    between atoms: _234  and  _235
REMARK   88  A    between atoms: _234  and  _237
REMARK   89  A    between atoms: _237  and  _238
REMARK   90  A    between atoms: _241  and  _243
REMARK   91  A    between atoms: _243  and  _244
REMARK   92  A    between atoms: _243  and  _246
REMARK   93  A    between atoms: _246  and  _247
REMARK   94  A    between atoms: _252  and  _254
REMARK   95  A    between atoms: _254  and  _255
REMARK   96  A    between atoms: _254  and  _257
REMARK   97  A    between atoms: _257  and  _258
REMARK   98  A    between atoms: _261  and  _263
REMARK   99  A    between atoms: _263  and  _264
REMARK  100  A    between atoms: _263  and  _266
REMARK  101  A    between atoms: _266  and  _267
REMARK  102  A    between atoms: _273  and  _275
REMARK  103  A    between atoms: _275  and  _276
REMARK  104  A    between atoms: _275  and  _278
REMARK  105  A    between atoms: _278  and  _279
REMARK  106  A    between atoms: _282  and  _284
REMARK  107  A    between atoms: _284  and  _285
REMARK  108  A    between atoms: _284  and  _287
REMARK  109  A    between atoms: _290  and  _292
REMARK  110  A    between atoms: _292  and  _293
REMARK  111  A    between atoms: _296  and  _298
REMARK  112  A    between atoms: _298  and  _299
REMARK  113  A    between atoms: _302  and  _304
REMARK  114  A    between atoms: _315  and  _318
REMARK  115  A    between atoms: _318  and  _319
REMARK  116  A    between atoms: _319  and  _320
REMARK  117  A    between atoms: _325  and  _328
REMARK  118  A    between atoms: _328  and  _329
REMARK  119  A    between atoms: _339  and  _340
REMARK  120  A    between atoms: _348  and  _350
REMARK  121  A    between atoms: _350  and  _351
REMARK  122  A    between atoms: _350  and  _353
REMARK  123  A    between atoms: _353  and  _354
REMARK  124  A    between atoms: _356  and  _358
REMARK  125  A    between atoms: _358  and  _359
REMARK  126  A    between atoms: _358  and  _361
REMARK  127  A    between atoms: _361  and  _362
REMARK  128  A    between atoms: _366  and  ZN_723
REMARK  129  A    between atoms: _367  and  _369
REMARK  130  A    between atoms: _369  and  _370
REMARK  131  A    between atoms: _369  and  _372
REMARK  132  A    between atoms: _372  and  _373
REMARK  133  A    between atoms: _375  and  _377
REMARK  134  A    between atoms: _377  and  _378
REMARK  135  A    between atoms: _377  and  _380
REMARK  136  A    between atoms: _380  and  _381
REMARK  137  A    between atoms: _386  and  _388
REMARK  138  A    between atoms: _388  and  _389
REMARK  139  A    between atoms: _388  and  _391
REMARK  140  A    between atoms: _391  and  _392
REMARK  141  A    between atoms: _395  and  _397
REMARK  142  A    between atoms: _397  and  _398
REMARK  143  A    between atoms: _397  and  _400
REMARK  144  A    between atoms: _400  and  _401
REMARK  145  A    between atoms: _401  and  _402
REMARK  146  A    between atoms: _405  and  _407
REMARK  147  A    between atoms: _407  and  _408
REMARK  148  A    between atoms: _411  and  _413
REMARK  149  A    between atoms: _413  and  _414
REMARK  150  A    between atoms: _413  and  _416
REMARK  151  A    between atoms: _416  and  _417
REMARK  152  A    between atoms: _420  and  _422
REMARK  153  A    between atoms: _422  and  _423
REMARK  154  A    between atoms: _422  and  _425
REMARK  155  A    between atoms: _425  and  _426
REMARK  156  A    between atoms: _426  and  _427
REMARK  157  A    between atoms: _429  and  _431
REMARK  158  A    between atoms: _431  and  _432
REMARK  159  A    between atoms: _431  and  _434
REMARK  160  A    between atoms: _434  and  _435
REMARK  161  A    between atoms: _440  and  _441
REMARK  162  A    between atoms: _444  and  _445
REMARK  163  A    between atoms: _450  and  _452
REMARK  164  A    between atoms: _452  and  _453
REMARK  165  A    between atoms: _452  and  _455
REMARK  166  A    between atoms: _455  and  _456
REMARK  167  A    between atoms: _459  and  _461
REMARK  168  A    between atoms: _461  and  _462
REMARK  169  A    between atoms: _461  and  _464
REMARK  170  A    between atoms: _464  and  _465
REMARK  171  A    between atoms: _470  and  _471
REMARK  172  A    between atoms: _473  and  _475
REMARK  173  A    between atoms: _475  and  _476
REMARK  174  A    between atoms: _475  and  _478
REMARK  175  A    between atoms: _478  and  _479
REMARK  176  A    between atoms: _484  and  _486
REMARK  177  A    between atoms: _486  and  _487
REMARK  178  A    between atoms: _486  and  _489
REMARK  179  A    between atoms: _489  and  _490
REMARK  180  A    between atoms: _492  and  _494
REMARK  181  A    between atoms: _494  and  _495
REMARK  182  A    between atoms: _494  and  _497
REMARK  183  A    between atoms: _497  and  _498
REMARK  184  A    between atoms: _501  and  _503
REMARK  185  A    between atoms: _503  and  _504
REMARK  186  A    between atoms: _503  and  _506
REMARK  187  A    between atoms: _506  and  _507
REMARK  188  A    between atoms: _510  and  _512
REMARK  189  A    between atoms: _512  and  _513
REMARK  190  A    between atoms: _512  and  _515
REMARK  191  A    between atoms: _515  and  _516
REMARK  192  A    between atoms: _519  and  _521
REMARK  193  A    between atoms: _521  and  _522
REMARK  194  A    between atoms: _521  and  _524
REMARK  195  A    between atoms: _524  and  _525
REMARK  196  A    between atoms: _528  and  _530
REMARK  197  A    between atoms: _530  and  _531
REMARK  198  A    between atoms: _530  and  _533
REMARK  199  A    between atoms: _533  and  _534
REMARK  200  A    between atoms: _534  and  _535
REMARK  201  A    between atoms: _535  and  _536
REMARK  202  A    between atoms: _545  and  _547
REMARK  203  A    between atoms: _547  and  _548
REMARK  204  A    between atoms: _547  and  _550
REMARK  205  A    between atoms: _550  and  _551
REMARK  206  A    between atoms: _557  and  _559
REMARK  207  A    between atoms: _559  and  _560
REMARK  208  A    between atoms: _559  and  _562
REMARK  209  A    between atoms: _562  and  _563
REMARK  210  A    between atoms: _563  and  _564
REMARK  211  A    between atoms: _564  and  _565
REMARK  212  A    between atoms: _574  and  _576
REMARK  213  A    between atoms: _576  and  _577
REMARK  214  A    between atoms: _576  and  _579
REMARK  215  A    between atoms: _579  and  _580
REMARK  216  A    between atoms: _582  and  _584
REMARK  217  A    between atoms: _584  and  _585
REMARK  218  A    between atoms: _584  and  _587
REMARK  219  A    between atoms: _587  and  _588
REMARK  220  A    between atoms: _591  and  _593
REMARK  221  A    between atoms: _593  and  _594
REMARK  222  A    between atoms: _593  and  _596
REMARK  223  A    between atoms: _596  and  _597
REMARK  224  A    between atoms: _601  and  _602
REMARK  225  A    between atoms: _607  and  _609
REMARK  226  A    between atoms: _609  and  _610
REMARK  227  A    between atoms: _609  and  _612
REMARK  228  A    between atoms: _612  and  _613
REMARK  229  A    between atoms: _618  and  _620
REMARK  230  A    between atoms: _620  and  _621
REMARK  231  A    between atoms: _620  and  _623
REMARK  232  A    between atoms: _623  and  _624
REMARK  233  A    between atoms: _627  and  _629
REMARK  234  A    between atoms: _629  and  _630
REMARK  235  A    between atoms: _629  and  _632
REMARK  236  A    between atoms: _632  and  _633
REMARK  237  A    between atoms: _639  and  _641
REMARK  238  A    between atoms: _641  and  _642
REMARK  239  A    between atoms: _641  and  _644
REMARK  240  A    between atoms: _644  and  _645
REMARK  241  A    between atoms: _650  and  _652
REMARK  242  A    between atoms: _652  and  _653
REMARK  243  A    between atoms: _652  and  _655
REMARK  244  A    between atoms: _655  and  _656
REMARK  245  A    between atoms: _658  and  _660
REMARK  246  A    between atoms: _660  and  _661
REMARK  247  A    between atoms: _664  and  _666
REMARK  248  A    between atoms: _666  and  _667
REMARK  249  A    between atoms: _666  and  _669
REMARK  250  A    between atoms: _669  and  _670
REMARK  251  A    between atoms: _675  and  _677
REMARK  252  A    between atoms: _677  and  _678
REMARK  253  A    between atoms: _677  and  _680
REMARK  254  A    between atoms: _680  and  _681
REMARK  255  A    between atoms: _684  and  _686
REMARK  256  A    between atoms: _686  and  _687
REMARK  257  A    between atoms: _686  and  _689
REMARK  258  A    between atoms: _689  and  _690
REMARK  259  A    between atoms: _690  and  _691
REMARK  260  A    between atoms: _693  and  _695
REMARK  261  A    between atoms: _695  and  _696
REMARK  262  A    between atoms: _695  and  _698
REMARK  263  A    between atoms: _698  and  _699
REMARK  264  A    between atoms: _704  and  _705
REMARK  265  A    between atoms: _708  and  _709
REMARK  266  A    between atoms: _714  and  _716
REMARK  267  A    between atoms: _716  and  _717
REMARK  268  A    between atoms: _716  and  _719
REMARK  269  A    between atoms: _719  and  _720
REMARK                            x       y       z     vdW  Elec       q    Type
REMARK                         _______ _______ _______ _____ _____    ______ ____
ROOT
ATOM      1  O   HOH     1      43.132  36.685  29.488  0.00  0.00    +0.000 OA
ENDROOT
TORSDOF 0
REMARK  Name = ../refined-set-2016/1hfs/1hfs_pocket.pdb
REMARK  269 active torsions:
REMARK  status: ('A' for Active; 'I' for Inactive)
REMARK    1  A    between atoms: _1  and  _3
REMARK    2  A    between atoms: _3  and  _4
REMARK    3  A    between atoms: _3  and  _6
REMARK    4  A    between atoms: _6  and  _7
REMARK    5  A    between atoms: _11  and  ZN_724
REMARK    6  A    between atoms: _12  and  _14
REMARK    7  A    between atoms: _14  and  _15
REMARK    8  A    between atoms: _14  and  _17
REMARK    9  A    between atoms: _17  and  _18
REMARK   10  A    between atoms: _18  and  _20
REMARK   11  A    between atoms: _20  and  ZN_724
REMARK   12  A    between atoms: _21  and  _23
REMARK   13  A    between atoms: _23  and  _24
REMARK   14  A    between atoms: _23  and  _26
REMARK   15  A    between atoms: _26  and  _27
REMARK   16  A    between atoms: _33  and  _35
REMARK   17  A    between atoms: _35  and  _36
REMARK   18  A    between atoms: _35  and  _38
REMARK   19  A    between atoms: _38  and  _39
REMARK   20  A    between atoms: _44  and  _45
REMARK   21  A    between atoms: _48  and  _49
REMARK   22  A    between atoms: _54  and  _56
REMARK   23  A    between atoms: _56  and  _57
REMARK   24  A    between atoms: _56  and  _59
REMARK   25  A    between atoms: _59  and  _60
REMARK   26  A    between atoms: _66  and  _68
REMARK   27  A    between atoms: _68  and  _69
REMARK   28  A    between atoms: _68  and  _71
REMARK   29  A    between atoms: _71  and  _72
REMARK   30  A    between atoms: _76  and  _77
REMARK   31  A    between atoms: _82  and  _84
REMARK   32  A    between atoms: _89  and  _92
REMARK   33  A    between atoms: _92  and  _93
REMARK   34  A    between atoms: _100  and  _103
REMARK   35  A    between atoms: _101  and  _106
REMARK   36  A    between atoms: _106  and  _108
REMARK   37  A    between atoms: _108  and  _109
REMARK   38  A    between atoms: _108  and  _111
REMARK   39  A    between atoms: _111  and  _112
REMARK   40  A    between atoms: _115  and  _117
REMARK   41  A    between atoms: _117  and  _118
REMARK   42  A    between atoms: _121  and  _123
REMARK   43  A    between atoms: _123  and  _124
REMARK   44  A    between atoms: _123  and  _126
REMARK   45  A    between atoms: _126  and  _127
REMARK   46  A    between atoms: _131  and  ZN_724
REMARK   47  A    between atoms: _132  and  _134
REMARK   48  A    between atoms: _134  and  _135
REMARK   49  A    between atoms: _138  and  _140
REMARK   50  A    between atoms: _140  and  _141
REMARK   51  A    between atoms: _140  and  _143
REMARK   52  A    between atoms: _143  and  _144
REMARK   53  A    between atoms: _149  and  _150
REMARK   54  A    between atoms: _152  and  _154
REMARK   55  A    between atoms: _154  and  _155
REMARK   56  A    between atoms: _158  and  _160
REMARK   57  A    between atoms: _160  and  _161
REMARK   58  A    between atoms: _160  and  _163
REMARK   59  A    between atoms: _163  and  _164
REMARK   60  A    between atoms: _167  and  _169
REMARK   61  A    between atoms: _169  and  _170
REMARK   62  A    between atoms: _172  and  _174
REMARK   63  A    between atoms: _174  and  _175
REMARK   64  A    between atoms: _174  and  _177
REMARK   65  A    between atoms: _177  and  _178
REMARK   66  A    between atoms: _181  and  _183
REMARK   67  A    between atoms: _183  and  _184
REMARK   68  A    between atoms: _183  and  _186
REMARK   69  A    between atoms: _186  and  _187
REMARK   70  A    between atoms: _188  and  ZN_724
REMARK   71  A    between atoms: _192  and  _194
REMARK   72  A    between atoms: _194  and  _195
REMARK   73  A    between atoms: _194  and  _197
REMARK   74  A    between atoms: _197  and  _198
REMARK   75  A    between atoms: _201  and  _203
REMARK   76  A    between atoms: _203  and  _204
REMARK   77  A    between atoms: _203  and  _206
REMARK   78  A    between atoms: _206  and  _207
REMARK   79  A    between atoms: _207  and  _208
REMARK   80  A    between atoms: _211  and  _213
REMARK   81  A    between atoms: _213  and  _214
REMARK   82  A    between atoms: _213  and  _216
REMARK   83  A    between atoms: _216  and  _217
REMARK   84  A    between atoms: _227  and  _229
REMARK   85  A    between atoms: _229  and  _230
REMARK   86  A    between atoms: _232  and  _234
REMARK   87  A    between atoms: _234  and  _235
REMARK   88  A    between atoms: _234  and  _237
REMARK   89  A    between atoms: _237  and  _238
REMARK   90  A    between atoms: _241  and  _243
REMARK   91  A    between atoms: _243  and  _244
REMARK   92  A    between atoms: _243  and  _246
REMARK   93  A    between atoms: _246  and  _247
REMARK   94  A    between atoms: _252  and  _254
REMARK   95  A    between atoms: _254  and  _255
REMARK   96  A    between atoms: _254  and  _257
REMARK   97  A    between atoms: _257  and  _258
REMARK   98  A    between atoms: _261  and  _263
REMARK   99  A    between atoms: _263  and  _264
REMARK  100  A    between atoms: _263  and  _266
REMARK  101  A    between atoms: _266  and  _267
REMARK  102  A    between atoms: _273  and  _275
REMARK  103  A    between atoms: _275  and  _276
REMARK  104  A    between atoms: _275  and  _278
REMARK  105  A    between atoms: _278  and  _279
REMARK  106  A    between atoms: _282  and  _284
REMARK  107  A    between atoms: _284  and  _285
REMARK  108  A    between atoms: _284  and  _287
REMARK  109  A    between atoms: _290  and  _292
REMARK  110  A    between atoms: _292  and  _293
REMARK  111  A    between atoms: _296  and  _298
REMARK  112  A    between atoms: _298  and  _299
REMARK  113  A    between atoms: _302  and  _304
REMARK  114  A    between atoms: _315  and  _318
REMARK  115  A    between atoms: _318  and  _319
REMARK  116  A    between atoms: _319  and  _320
REMARK  117  A    between atoms: _325  and  _328
REMARK  118  A    between atoms: _328  and  _329
REMARK  119  A    between atoms: _339  and  _340
REMARK  120  A    between atoms: _348  and  _350
REMARK  121  A    between atoms: _350  and  _351
REMARK  122  A    between atoms: _350  and  _353
REMARK  123  A    between atoms: _353  and  _354
REMARK  124  A    between atoms: _356  and  _358
REMARK  125  A    between atoms: _358  and  _359
REMARK  126  A    between atoms: _358  and  _361
REMARK  127  A    between atoms: _361  and  _362
REMARK  128  A    between atoms: _366  and  ZN_723
REMARK  129  A    between atoms: _367  and  _369
REMARK  130  A    between atoms: _369  and  _370
REMARK  131  A    between atoms: _369  and  _372
REMARK  132  A    between atoms: _372  and  _373
REMARK  133  A    between atoms: _375  and  _377
REMARK  134  A    between atoms: _377  and  _378
REMARK  135  A    between atoms: _377  and  _380
REMARK  136  A    between atoms: _380  and  _381
REMARK  137  A    between atoms: _386  and  _388
REMARK  138  A    between atoms: _388  and  _389
REMARK  139  A    between atoms: _388  and  _391
REMARK  140  A    between atoms: _391  and  _392
REMARK  141  A    between atoms: _395  and  _397
REMARK  142  A    between atoms: _397  and  _398
REMARK  143  A    between atoms: _397  and  _400
REMARK  144  A    between atoms: _400  and  _401
REMARK  145  A    between atoms: _401  and  _402
REMARK  146  A    between atoms: _405  and  _407
REMARK  147  A    between atoms: _407  and  _408
REMARK  148  A    between atoms: _411  and  _413
REMARK  149  A    between atoms: _413  and  _414
REMARK  150  A    between atoms: _413  and  _416
REMARK  151  A    between atoms: _416  and  _417
REMARK  152  A    between atoms: _420  and  _422
REMARK  153  A    between atoms: _422  and  _423
REMARK  154  A    between atoms: _422  and  _425
REMARK  155  A    between atoms: _425  and  _426
REMARK  156  A    between atoms: _426  and  _427
REMARK  157  A    between atoms: _429  and  _431
REMARK  158  A    between atoms: _431  and  _432
REMARK  159  A    between atoms: _431  and  _434
REMARK  160  A    between atoms: _434  and  _435
REMARK  161  A    between atoms: _440  and  _441
REMARK  162  A    between atoms: _444  and  _445
REMARK  163  A    between atoms: _450  and  _452
REMARK  164  A    between atoms: _452  and  _453
REMARK  165  A    between atoms: _452  and  _455
REMARK  166  A    between atoms: _455  and  _456
REMARK  167  A    between atoms: _459  and  _461
REMARK  168  A    between atoms: _461  and  _462
REMARK  169  A    between atoms: _461  and  _464
REMARK  170  A    between atoms: _464  and  _465
REMARK  171  A    between atoms: _470  and  _471
REMARK  172  A    between atoms: _473  and  _475
REMARK  173  A    between atoms: _475  and  _476
REMARK  174  A    between atoms: _475  and  _478
REMARK  175  A    between atoms: _478  and  _479
REMARK  176  A    between atoms: _484  and  _486
REMARK  177  A    between atoms: _486  and  _487
REMARK  178  A    between atoms: _486  and  _489
REMARK  179  A    between atoms: _489  and  _490
REMARK  180  A    between atoms: _492  and  _494
REMARK  181  A    between atoms: _494  and  _495
REMARK  182  A    between atoms: _494  and  _497
REMARK  183  A    between atoms: _497  and  _498
REMARK  184  A    between atoms: _501  and  _503
REMARK  185  A    between atoms: _503  and  _504
REMARK  186  A    between atoms: _503  and  _506
REMARK  187  A    between atoms: _506  and  _507
REMARK  188  A    between atoms: _510  and  _512
REMARK  189  A    between atoms: _512  and  _513
REMARK  190  A    between atoms: _512  and  _515
REMARK  191  A    between atoms: _515  and  _516
REMARK  192  A    between atoms: _519  and  _521
REMARK  193  A    between atoms: _521  and  _522
REMARK  194  A    between atoms: _521  and  _524
REMARK  195  A    between atoms: _524  and  _525
REMARK  196  A    between atoms: _528  and  _530
REMARK  197  A    between atoms: _530  and  _531
REMARK  198  A    between atoms: _530  and  _533
REMARK  199  A    between atoms: _533  and  _534
REMARK  200  A    between atoms: _534  and  _535
REMARK  201  A    between atoms: _535  and  _536
REMARK  202  A    between atoms: _545  and  _547
REMARK  203  A    between atoms: _547  and  _548
REMARK  204  A    between atoms: _547  and  _550
REMARK  205  A    between atoms: _550  and  _551
REMARK  206  A    between atoms: _557  and  _559
REMARK  207  A    between atoms: _559  and  _560
REMARK  208  A    between atoms: _559  and  _562
REMARK  209  A    between atoms: _562  and  _563
REMARK  210  A    between atoms: _563  and  _564
REMARK  211  A    between atoms: _564  and  _565
REMARK  212  A    between atoms: _574  and  _576
REMARK  213  A    between atoms: _576  and  _577
REMARK  214  A    between atoms: _576  and  _579
REMARK  215  A    between atoms: _579  and  _580
REMARK  216  A    between atoms: _582  and  _584
REMARK  217  A    between atoms: _584  and  _585
REMARK  218  A    between atoms: _584  and  _587
REMARK  219  A    between atoms: _587  and  _588
REMARK  220  A    between atoms: _591  and  _593
REMARK  221  A    between atoms: _593  and  _594
REMARK  222  A    between atoms: _593  and  _596
REMARK  223  A    between atoms: _596  and  _597
REMARK  224  A    between atoms: _601  and  _602
REMARK  225  A    between atoms: _607  and  _609
REMARK  226  A    between atoms: _609  and  _610
REMARK  227  A    between atoms: _609  and  _612
REMARK  228  A    between atoms: _612  and  _613
REMARK  229  A    between atoms: _618  and  _620
REMARK  230  A    between atoms: _620  and  _621
REMARK  231  A    between atoms: _620  and  _623
REMARK  232  A    between atoms: _623  and  _624
REMARK  233  A    between atoms: _627  and  _629
REMARK  234  A    between atoms: _629  and  _630
REMARK  235  A    between atoms: _629  and  _632
REMARK  236  A    between atoms: _632  and  _633
REMARK  237  A    between atoms: _639  and  _641
REMARK  238  A    between atoms: _641  and  _642
REMARK  239  A    between atoms: _641  and  _644
REMARK  240  A    between atoms: _644  and  _645
REMARK  241  A    between atoms: _650  and  _652
REMARK  242  A    between atoms: _652  and  _653
REMARK  243  A    between atoms: _652  and  _655
REMARK  244  A    between atoms: _655  and  _656
REMARK  245  A    between atoms: _658  and  _660
REMARK  246  A    between atoms: _660  and  _661
REMARK  247  A    between atoms: _664  and  _666
REMARK  248  A    between atoms: _666  and  _667
REMARK  249  A    between atoms: _666  and  _669
REMARK  250  A    between atoms: _669  and  _670
REMARK  251  A    between atoms: _675  and  _677
REMARK  252  A    between atoms: _677  and  _678
REMARK  253  A    between atoms: _677  and  _680
REMARK  254  A    between atoms: _680  and  _681
REMARK  255  A    between atoms: _684  and  _686
REMARK  256  A    between atoms: _686  and  _687
REMARK  257  A    between atoms: _686  and  _689
REMARK  258  A    between atoms: _689  and  _690
REMARK  259  A    between atoms: _690  and  _691
REMARK  260  A    between atoms: _693  and  _695
REMARK  261  A    between atoms: _695  and  _696
REMARK  262  A    between atoms: _695  and  _698
REMARK  263  A    between atoms: _698  and  _699
REMARK  264  A    between atoms: _704  and  _705
REMARK  265  A    between atoms: _708  and  _709
REMARK  266  A    between atoms: _714  and  _716
REMARK  267  A    between atoms: _716  and  _717
REMARK  268  A    between atoms: _716  and  _719
REMARK  269  A    between atoms: _719  and  _720
REMARK                            x       y       z     vdW  Elec       q    Type
REMARK                         _______ _______ _______ _____ _____    ______ ____
ROOT
ATOM      1  O   HOH     1      38.555  30.835  36.536  0.00  0.00    +0.000 OA
ENDROOT
TORSDOF 0
REMARK  Name = ../refined-set-2016/1hfs/1hfs_pocket.pdb
REMARK  269 active torsions:
REMARK  status: ('A' for Active; 'I' for Inactive)
REMARK    1  A    between atoms: _1  and  _3
REMARK    2  A    between atoms: _3  and  _4
REMARK    3  A    between atoms: _3  and  _6
REMARK    4  A    between atoms: _6  and  _7
REMARK    5  A    between atoms: _11  and  ZN_724
REMARK    6  A    between atoms: _12  and  _14
REMARK    7  A    between atoms: _14  and  _15
REMARK    8  A    between atoms: _14  and  _17
REMARK    9  A    between atoms: _17  and  _18
REMARK   10  A    between atoms: _18  and  _20
REMARK   11  A    between atoms: _20  and  ZN_724
REMARK   12  A    between atoms: _21  and  _23
REMARK   13  A    between atoms: _23  and  _24
REMARK   14  A    between atoms: _23  and  _26
REMARK   15  A    between atoms: _26  and  _27
REMARK   16  A    between atoms: _33  and  _35
REMARK   17  A    between atoms: _35  and  _36
REMARK   18  A    between atoms: _35  and  _38
REMARK   19  A    between atoms: _38  and  _39
REMARK   20  A    between atoms: _44  and  _45
REMARK   21  A    between atoms: _48  and  _49
REMARK   22  A    between atoms: _54  and  _56
REMARK   23  A    between atoms: _56  and  _57
REMARK   24  A    between atoms: _56  and  _59
REMARK   25  A    between atoms: _59  and  _60
REMARK   26  A    between atoms: _66  and  _68
REMARK   27  A    between atoms: _68  and  _69
REMARK   28  A    between atoms: _68  and  _71
REMARK   29  A    between atoms: _71  and  _72
REMARK   30  A    between atoms: _76  and  _77
REMARK   31  A    between atoms: _82  and  _84
REMARK   32  A    between atoms: _89  and  _92
REMARK   33  A    between atoms: _92  and  _93
REMARK   34  A    between atoms: _100  and  _103
REMARK   35  A    between atoms: _101  and  _106
REMARK   36  A    between atoms: _106  and  _108
REMARK   37  A    between atoms: _108  and  _109
REMARK   38  A    between atoms: _108  and  _111
REMARK   39  A    between atoms: _111  and  _112
REMARK   40  A    between atoms: _115  and  _117
REMARK   41  A    between atoms: _117  and  _118
REMARK   42  A    between atoms: _121  and  _123
REMARK   43  A    between atoms: _123  and  _124
REMARK   44  A    between atoms: _123  and  _126
REMARK   45  A    between atoms: _126  and  _127
REMARK   46  A    between atoms: _131  and  ZN_724
REMARK   47  A    between atoms: _132  and  _134
REMARK   48  A    between atoms: _134  and  _135
REMARK   49  A    between atoms: _138  and  _140
REMARK   50  A    between atoms: _140  and  _141
REMARK   51  A    between atoms: _140  and  _143
REMARK   52  A    between atoms: _143  and  _144
REMARK   53  A    between atoms: _149  and  _150
REMARK   54  A    between atoms: _152  and  _154
REMARK   55  A    between atoms: _154  and  _155
REMARK   56  A    between atoms: _158  and  _160
REMARK   57  A    between atoms: _160  and  _161
REMARK   58  A    between atoms: _160  and  _163
REMARK   59  A    between atoms: _163  and  _164
REMARK   60  A    between atoms: _167  and  _169
REMARK   61  A    between atoms: _169  and  _170
REMARK   62  A    between atoms: _172  and  _174
REMARK   63  A    between atoms: _174  and  _175
REMARK   64  A    between atoms: _174  and  _177
REMARK   65  A    between atoms: _177  and  _178
REMARK   66  A    between atoms: _181  and  _183
REMARK   67  A    between atoms: _183  and  _184
REMARK   68  A    between atoms: _183  and  _186
REMARK   69  A    between atoms: _186  and  _187
REMARK   70  A    between atoms: _188  and  ZN_724
REMARK   71  A    between atoms: _192  and  _194
REMARK   72  A    between atoms: _194  and  _195
REMARK   73  A    between atoms: _194  and  _197
REMARK   74  A    between atoms: _197  and  _198
REMARK   75  A    between atoms: _201  and  _203
REMARK   76  A    between atoms: _203  and  _204
REMARK   77  A    between atoms: _203  and  _206
REMARK   78  A    between atoms: _206  and  _207
REMARK   79  A    between atoms: _207  and  _208
REMARK   80  A    between atoms: _211  and  _213
REMARK   81  A    between atoms: _213  and  _214
REMARK   82  A    between atoms: _213  and  _216
REMARK   83  A    between atoms: _216  and  _217
REMARK   84  A    between atoms: _227  and  _229
REMARK   85  A    between atoms: _229  and  _230
REMARK   86  A    between atoms: _232  and  _234
REMARK   87  A    between atoms: _234  and  _235
REMARK   88  A    between atoms: _234  and  _237
REMARK   89  A    between atoms: _237  and  _238
REMARK   90  A    between atoms: _241  and  _243
REMARK   91  A    between atoms: _243  and  _244
REMARK   92  A    between atoms: _243  and  _246
REMARK   93  A    between atoms: _246  and  _247
REMARK   94  A    between atoms: _252  and  _254
REMARK   95  A    between atoms: _254  and  _255
REMARK   96  A    between atoms: _254  and  _257
REMARK   97  A    between atoms: _257  and  _258
REMARK   98  A    between atoms: _261  and  _263
REMARK   99  A    between atoms: _263  and  _264
REMARK  100  A    between atoms: _263  and  _266
REMARK  101  A    between atoms: _266  and  _267
REMARK  102  A    between atoms: _273  and  _275
REMARK  103  A    between atoms: _275  and  _276
REMARK  104  A    between atoms: _275  and  _278
REMARK  105  A    between atoms: _278  and  _279
REMARK  106  A    between atoms: _282  and  _284
REMARK  107  A    between atoms: _284  and  _285
REMARK  108  A    between atoms: _284  and  _287
REMARK  109  A    between atoms: _290  and  _292
REMARK  110  A    between atoms: _292  and  _293
REMARK  111  A    between atoms: _296  and  _298
REMARK  112  A    between atoms: _298  and  _299
REMARK  113  A    between atoms: _302  and  _304
REMARK  114  A    between atoms: _315  and  _318
REMARK  115  A    between atoms: _318  and  _319
REMARK  116  A    between atoms: _319  and  _320
REMARK  117  A    between atoms: _325  and  _328
REMARK  118  A    between atoms: _328  and  _329
REMARK  119  A    between atoms: _339  and  _340
REMARK  120  A    between atoms: _348  and  _350
REMARK  121  A    between atoms: _350  and  _351
REMARK  122  A    between atoms: _350  and  _353
REMARK  123  A    between atoms: _353  and  _354
REMARK  124  A    between atoms: _356  and  _358
REMARK  125  A    between atoms: _358  and  _359
REMARK  126  A    between atoms: _358  and  _361
REMARK  127  A    between atoms: _361  and  _362
REMARK  128  A    between atoms: _366  and  ZN_723
REMARK  129  A    between atoms: _367  and  _369
REMARK  130  A    between atoms: _369  and  _370
REMARK  131  A    between atoms: _369  and  _372
REMARK  132  A    between atoms: _372  and  _373
REMARK  133  A    between atoms: _375  and  _377
REMARK  134  A    between atoms: _377  and  _378
REMARK  135  A    between atoms: _377  and  _380
REMARK  136  A    between atoms: _380  and  _381
REMARK  137  A    between atoms: _386  and  _388
REMARK  138  A    between atoms: _388  and  _389
REMARK  139  A    between atoms: _388  and  _391
REMARK  140  A    between atoms: _391  and  _392
REMARK  141  A    between atoms: _395  and  _397
REMARK  142  A    between atoms: _397  and  _398
REMARK  143  A    between atoms: _397  and  _400
REMARK  144  A    between atoms: _400  and  _401
REMARK  145  A    between atoms: _401  and  _402
REMARK  146  A    between atoms: _405  and  _407
REMARK  147  A    between atoms: _407  and  _408
REMARK  148  A    between atoms: _411  and  _413
REMARK  149  A    between atoms: _413  and  _414
REMARK  150  A    between atoms: _413  and  _416
REMARK  151  A    between atoms: _416  and  _417
REMARK  152  A    between atoms: _420  and  _422
REMARK  153  A    between atoms: _422  and  _423
REMARK  154  A    between atoms: _422  and  _425
REMARK  155  A    between atoms: _425  and  _426
REMARK  156  A    between atoms: _426  and  _427
REMARK  157  A    between atoms: _429  and  _431
REMARK  158  A    between atoms: _431  and  _432
REMARK  159  A    between atoms: _431  and  _434
REMARK  160  A    between atoms: _434  and  _435
REMARK  161  A    between atoms: _440  and  _441
REMARK  162  A    between atoms: _444  and  _445
REMARK  163  A    between atoms: _450  and  _452
REMARK  164  A    between atoms: _452  and  _453
REMARK  165  A    between atoms: _452  and  _455
REMARK  166  A    between atoms: _455  and  _456
REMARK  167  A    between atoms: _459  and  _461
REMARK  168  A    between atoms: _461  and  _462
REMARK  169  A    between atoms: _461  and  _464
REMARK  170  A    between atoms: _464  and  _465
REMARK  171  A    between atoms: _470  and  _471
REMARK  172  A    between atoms: _473  and  _475
REMARK  173  A    between atoms: _475  and  _476
REMARK  174  A    between atoms: _475  and  _478
REMARK  175  A    between atoms: _478  and  _479
REMARK  176  A    between atoms: _484  and  _486
REMARK  177  A    between atoms: _486  and  _487
REMARK  178  A    between atoms: _486  and  _489
REMARK  179  A    between atoms: _489  and  _490
REMARK  180  A    between atoms: _492  and  _494
REMARK  181  A    between atoms: _494  and  _495
REMARK  182  A    between atoms: _494  and  _497
REMARK  183  A    between atoms: _497  and  _498
REMARK  184  A    between atoms: _501  and  _503
REMARK  185  A    between atoms: _503  and  _504
REMARK  186  A    between atoms: _503  and  _506
REMARK  187  A    between atoms: _506  and  _507
REMARK  188  A    between atoms: _510  and  _512
REMARK  189  A    between atoms: _512  and  _513
REMARK  190  A    between atoms: _512  and  _515
REMARK  191  A    between atoms: _515  and  _516
REMARK  192  A    between atoms: _519  and  _521
REMARK  193  A    between atoms: _521  and  _522
REMARK  194  A    between atoms: _521  and  _524
REMARK  195  A    between atoms: _524  and  _525
REMARK  196  A    between atoms: _528  and  _530
REMARK  197  A    between atoms: _530  and  _531
REMARK  198  A    between atoms: _530  and  _533
REMARK  199  A    between atoms: _533  and  _534
REMARK  200  A    between atoms: _534  and  _535
REMARK  201  A    between atoms: _535  and  _536
REMARK  202  A    between atoms: _545  and  _547
REMARK  203  A    between atoms: _547  and  _548
REMARK  204  A    between atoms: _547  and  _550
REMARK  205  A    between atoms: _550  and  _551
REMARK  206  A    between atoms: _557  and  _559
REMARK  207  A    between atoms: _559  and  _560
REMARK  208  A    between atoms: _559  and  _562
REMARK  209  A    between atoms: _562  and  _563
REMARK  210  A    between atoms: _563  and  _564
REMARK  211  A    between atoms: _564  and  _565
REMARK  212  A    between atoms: _574  and  _576
REMARK  213  A    between atoms: _576  and  _577
REMARK  214  A    between atoms: _576  and  _579
REMARK  215  A    between atoms: _579  and  _580
REMARK  216  A    between atoms: _582  and  _584
REMARK  217  A    between atoms: _584  and  _585
REMARK  218  A    between atoms: _584  and  _587
REMARK  219  A    between atoms: _587  and  _588
REMARK  220  A    between atoms: _591  and  _593
REMARK  221  A    between atoms: _593  and  _594
REMARK  222  A    between atoms: _593  and  _596
REMARK  223  A    between atoms: _596  and  _597
REMARK  224  A    between atoms: _601  and  _602
REMARK  225  A    between atoms: _607  and  _609
REMARK  226  A    between atoms: _609  and  _610
REMARK  227  A    between atoms: _609  and  _612
REMARK  228  A    between atoms: _612  and  _613
REMARK  229  A    between atoms: _618  and  _620
REMARK  230  A    between atoms: _620  and  _621
REMARK  231  A    between atoms: _620  and  _623
REMARK  232  A    between atoms: _623  and  _624
REMARK  233  A    between atoms: _627  and  _629
REMARK  234  A    between atoms: _629  and  _630
REMARK  235  A    between atoms: _629  and  _632
REMARK  236  A    between atoms: _632  and  _633
REMARK  237  A    between atoms: _639  and  _641
REMARK  238  A    between atoms: _641  and  _642
REMARK  239  A    between atoms: _641  and  _644
REMARK  240  A    between atoms: _644  and  _645
REMARK  241  A    between atoms: _650  and  _652
REMARK  242  A    between atoms: _652  and  _653
REMARK  243  A    between atoms: _652  and  _655
REMARK  244  A    between atoms: _655  and  _656
REMARK  245  A    between atoms: _658  and  _660
REMARK  246  A    between atoms: _660  and  _661
REMARK  247  A    between atoms: _664  and  _666
REMARK  248  A    between atoms: _666  and  _667
REMARK  249  A    between atoms: _666  and  _669
REMARK  250  A    between atoms: _669  and  _670
REMARK  251  A    between atoms: _675  and  _677
REMARK  252  A    between atoms: _677  and  _678
REMARK  253  A    between atoms: _677  and  _680
REMARK  254  A    between atoms: _680  and  _681
REMARK  255  A    between atoms: _684  and  _686
REMARK  256  A    between atoms: _686  and  _687
REMARK  257  A    between atoms: _686  and  _689
REMARK  258  A    between atoms: _689  and  _690
REMARK  259  A    between atoms: _690  and  _691
REMARK  260  A    between atoms: _693  and  _695
REMARK  261  A    between atoms: _695  and  _696
REMARK  262  A    between atoms: _695  and  _698
REMARK  263  A    between atoms: _698  and  _699
REMARK  264  A    between atoms: _704  and  _705
REMARK  265  A    between atoms: _708  and  _709
REMARK  266  A    between atoms: _714  and  _716
REMARK  267  A    between atoms: _716  and  _717
REMARK  268  A    between atoms: _716  and  _719
REMARK  269  A    between atoms: _719  and  _720
REMARK                            x       y       z     vdW  Elec       q    Type
REMARK                         _______ _______ _______ _____ _____    ______ ____
ROOT
ATOM      1  O   HOH     1      35.719  40.956  14.830  0.00  0.00    +0.000 OA
ENDROOT
TORSDOF 0
REMARK  Name = ../refined-set-2016/1hfs/1hfs_pocket.pdb
REMARK  269 active torsions:
REMARK  status: ('A' for Active; 'I' for Inactive)
REMARK    1  A    between atoms: _1  and  _3
REMARK    2  A    between atoms: _3  and  _4
REMARK    3  A    between atoms: _3  and  _6
REMARK    4  A    between atoms: _6  and  _7
REMARK    5  A    between atoms: _11  and  ZN_724
REMARK    6  A    between atoms: _12  and  _14
REMARK    7  A    between atoms: _14  and  _15
REMARK    8  A    between atoms: _14  and  _17
REMARK    9  A    between atoms: _17  and  _18
REMARK   10  A    between atoms: _18  and  _20
REMARK   11  A    between atoms: _20  and  ZN_724
REMARK   12  A    between atoms: _21  and  _23
REMARK   13  A    between atoms: _23  and  _24
REMARK   14  A    between atoms: _23  and  _26
REMARK   15  A    between atoms: _26  and  _27
REMARK   16  A    between atoms: _33  and  _35
REMARK   17  A    between atoms: _35  and  _36
REMARK   18  A    between atoms: _35  and  _38
REMARK   19  A    between atoms: _38  and  _39
REMARK   20  A    between atoms: _44  and  _45
REMARK   21  A    between atoms: _48  and  _49
REMARK   22  A    between atoms: _54  and  _56
REMARK   23  A    between atoms: _56  and  _57
REMARK   24  A    between atoms: _56  and  _59
REMARK   25  A    between atoms: _59  and  _60
REMARK   26  A    between atoms: _66  and  _68
REMARK   27  A    between atoms: _68  and  _69
REMARK   28  A    between atoms: _68  and  _71
REMARK   29  A    between atoms: _71  and  _72
REMARK   30  A    between atoms: _76  and  _77
REMARK   31  A    between atoms: _82  and  _84
REMARK   32  A    between atoms: _89  and  _92
REMARK   33  A    between atoms: _92  and  _93
REMARK   34  A    between atoms: _100  and  _103
REMARK   35  A    between atoms: _101  and  _106
REMARK   36  A    between atoms: _106  and  _108
REMARK   37  A    between atoms: _108  and  _109
REMARK   38  A    between atoms: _108  and  _111
REMARK   39  A    between atoms: _111  and  _112
REMARK   40  A    between atoms: _115  and  _117
REMARK   41  A    between atoms: _117  and  _118
REMARK   42  A    between atoms: _121  and  _123
REMARK   43  A    between atoms: _123  and  _124
REMARK   44  A    between atoms: _123  and  _126
REMARK   45  A    between atoms: _126  and  _127
REMARK   46  A    between atoms: _131  and  ZN_724
REMARK   47  A    between atoms: _132  and  _134
REMARK   48  A    between atoms: _134  and  _135
REMARK   49  A    between atoms: _138  and  _140
REMARK   50  A    between atoms: _140  and  _141
REMARK   51  A    between atoms: _140  and  _143
REMARK   52  A    between atoms: _143  and  _144
REMARK   53  A    between atoms: _149  and  _150
REMARK   54  A    between atoms: _152  and  _154
REMARK   55  A    between atoms: _154  and  _155
REMARK   56  A    between atoms: _158  and  _160
REMARK   57  A    between atoms: _160  and  _161
REMARK   58  A    between atoms: _160  and  _163
REMARK   59  A    between atoms: _163  and  _164
REMARK   60  A    between atoms: _167  and  _169
REMARK   61  A    between atoms: _169  and  _170
REMARK   62  A    between atoms: _172  and  _174
REMARK   63  A    between atoms: _174  and  _175
REMARK   64  A    between atoms: _174  and  _177
REMARK   65  A    between atoms: _177  and  _178
REMARK   66  A    between atoms: _181  and  _183
REMARK   67  A    between atoms: _183  and  _184
REMARK   68  A    between atoms: _183  and  _186
REMARK   69  A    between atoms: _186  and  _187
REMARK   70  A    between atoms: _188  and  ZN_724
REMARK   71  A    between atoms: _192  and  _194
REMARK   72  A    between atoms: _194  and  _195
REMARK   73  A    between atoms: _194  and  _197
REMARK   74  A    between atoms: _197  and  _198
REMARK   75  A    between atoms: _201  and  _203
REMARK   76  A    between atoms: _203  and  _204
REMARK   77  A    between atoms: _203  and  _206
REMARK   78  A    between atoms: _206  and  _207
REMARK   79  A    between atoms: _207  and  _208
REMARK   80  A    between atoms: _211  and  _213
REMARK   81  A    between atoms: _213  and  _214
REMARK   82  A    between atoms: _213  and  _216
REMARK   83  A    between atoms: _216  and  _217
REMARK   84  A    between atoms: _227  and  _229
REMARK   85  A    between atoms: _229  and  _230
REMARK   86  A    between atoms: _232  and  _234
REMARK   87  A    between atoms: _234  and  _235
REMARK   88  A    between atoms: _234  and  _237
REMARK   89  A    between atoms: _237  and  _238
REMARK   90  A    between atoms: _241  and  _243
REMARK   91  A    between atoms: _243  and  _244
REMARK   92  A    between atoms: _243  and  _246
REMARK   93  A    between atoms: _246  and  _247
REMARK   94  A    between atoms: _252  and  _254
REMARK   95  A    between atoms: _254  and  _255
REMARK   96  A    between atoms: _254  and  _257
REMARK   97  A    between atoms: _257  and  _258
REMARK   98  A    between atoms: _261  and  _263
REMARK   99  A    between atoms: _263  and  _264
REMARK  100  A    between atoms: _263  and  _266
REMARK  101  A    between atoms: _266  and  _267
REMARK  102  A    between atoms: _273  and  _275
REMARK  103  A    between atoms: _275  and  _276
REMARK  104  A    between atoms: _275  and  _278
REMARK  105  A    between atoms: _278  and  _279
REMARK  106  A    between atoms: _282  and  _284
REMARK  107  A    between atoms: _284  and  _285
REMARK  108  A    between atoms: _284  and  _287
REMARK  109  A    between atoms: _290  and  _292
REMARK  110  A    between atoms: _292  and  _293
REMARK  111  A    between atoms: _296  and  _298
REMARK  112  A    between atoms: _298  and  _299
REMARK  113  A    between atoms: _302  and  _304
REMARK  114  A    between atoms: _315  and  _318
REMARK  115  A    between atoms: _318  and  _319
REMARK  116  A    between atoms: _319  and  _320
REMARK  117  A    between atoms: _325  and  _328
REMARK  118  A    between atoms: _328  and  _329
REMARK  119  A    between atoms: _339  and  _340
REMARK  120  A    between atoms: _348  and  _350
REMARK  121  A    between atoms: _350  and  _351
REMARK  122  A    between atoms: _350  and  _353
REMARK  123  A    between atoms: _353  and  _354
REMARK  124  A    between atoms: _356  and  _358
REMARK  125  A    between atoms: _358  and  _359
REMARK  126  A    between atoms: _358  and  _361
REMARK  127  A    between atoms: _361  and  _362
REMARK  128  A    between atoms: _366  and  ZN_723
REMARK  129  A    between atoms: _367  and  _369
REMARK  130  A    between atoms: _369  and  _370
REMARK  131  A    between atoms: _369  and  _372
REMARK  132  A    between atoms: _372  and  _373
REMARK  133  A    between atoms: _375  and  _377
REMARK  134  A    between atoms: _377  and  _378
REMARK  135  A    between atoms: _377  and  _380
REMARK  136  A    between atoms: _380  and  _381
REMARK  137  A    between atoms: _386  and  _388
REMARK  138  A    between atoms: _388  and  _389
REMARK  139  A    between atoms: _388  and  _391
REMARK  140  A    between atoms: _391  and  _392
REMARK  141  A    between atoms: _395  and  _397
REMARK  142  A    between atoms: _397  and  _398
REMARK  143  A    between atoms: _397  and  _400
REMARK  144  A    between atoms: _400  and  _401
REMARK  145  A    between atoms: _401  and  _402
REMARK  146  A    between atoms: _405  and  _407
REMARK  147  A    between atoms: _407  and  _408
REMARK  148  A    between atoms: _411  and  _413
REMARK  149  A    between atoms: _413  and  _414
REMARK  150  A    between atoms: _413  and  _416
REMARK  151  A    between atoms: _416  and  _417
REMARK  152  A    between atoms: _420  and  _422
REMARK  153  A    between atoms: _422  and  _423
REMARK  154  A    between atoms: _422  and  _425
REMARK  155  A    between atoms: _425  and  _426
REMARK  156  A    between atoms: _426  and  _427
REMARK  157  A    between atoms: _429  and  _431
REMARK  158  A    between atoms: _431  and  _432
REMARK  159  A    between atoms: _431  and  _434
REMARK  160  A    between atoms: _434  and  _435
REMARK  161  A    between atoms: _440  and  _441
REMARK  162  A    between atoms: _444  and  _445
REMARK  163  A    between atoms: _450  and  _452
REMARK  164  A    between atoms: _452  and  _453
REMARK  165  A    between atoms: _452  and  _455
REMARK  166  A    between atoms: _455  and  _456
REMARK  167  A    between atoms: _459  and  _461
REMARK  168  A    between atoms: _461  and  _462
REMARK  169  A    between atoms: _461  and  _464
REMARK  170  A    between atoms: _464  and  _465
REMARK  171  A    between atoms: _470  and  _471
REMARK  172  A    between atoms: _473  and  _475
REMARK  173  A    between atoms: _475  and  _476
REMARK  174  A    between atoms: _475  and  _478
REMARK  175  A    between atoms: _478  and  _479
REMARK  176  A    between atoms: _484  and  _486
REMARK  177  A    between atoms: _486  and  _487
REMARK  178  A    between atoms: _486  and  _489
REMARK  179  A    between atoms: _489  and  _490
REMARK  180  A    between atoms: _492  and  _494
REMARK  181  A    between atoms: _494  and  _495
REMARK  182  A    between atoms: _494  and  _497
REMARK  183  A    between atoms: _497  and  _498
REMARK  184  A    between atoms: _501  and  _503
REMARK  185  A    between atoms: _503  and  _504
REMARK  186  A    between atoms: _503  and  _506
REMARK  187  A    between atoms: _506  and  _507
REMARK  188  A    between atoms: _510  and  _512
REMARK  189  A    between atoms: _512  and  _513
REMARK  190  A    between atoms: _512  and  _515
REMARK  191  A    between atoms: _515  and  _516
REMARK  192  A    between atoms: _519  and  _521
REMARK  193  A    between atoms: _521  and  _522
REMARK  194  A    between atoms: _521  and  _524
REMARK  195  A    between atoms: _524  and  _525
REMARK  196  A    between atoms: _528  and  _530
REMARK  197  A    between atoms: _530  and  _531
REMARK  198  A    between atoms: _530  and  _533
REMARK  199  A    between atoms: _533  and  _534
REMARK  200  A    between atoms: _534  and  _535
REMARK  201  A    between atoms: _535  and  _536
REMARK  202  A    between atoms: _545  and  _547
REMARK  203  A    between atoms: _547  and  _548
REMARK  204  A    between atoms: _547  and  _550
REMARK  205  A    between atoms: _550  and  _551
REMARK  206  A    between atoms: _557  and  _559
REMARK  207  A    between atoms: _559  and  _560
REMARK  208  A    between atoms: _559  and  _562
REMARK  209  A    between atoms: _562  and  _563
REMARK  210  A    between atoms: _563  and  _564
REMARK  211  A    between atoms: _564  and  _565
REMARK  212  A    between atoms: _574  and  _576
REMARK  213  A    between atoms: _576  and  _577
REMARK  214  A    between atoms: _576  and  _579
REMARK  215  A    between atoms: _579  and  _580
REMARK  216  A    between atoms: _582  and  _584
REMARK  217  A    between atoms: _584  and  _585
REMARK  218  A    between atoms: _584  and  _587
REMARK  219  A    between atoms: _587  and  _588
REMARK  220  A    between atoms: _591  and  _593
REMARK  221  A    between atoms: _593  and  _594
REMARK  222  A    between atoms: _593  and  _596
REMARK  223  A    between atoms: _596  and  _597
REMARK  224  A    between atoms: _601  and  _602
REMARK  225  A    between atoms: _607  and  _609
REMARK  226  A    between atoms: _609  and  _610
REMARK  227  A    between atoms: _609  and  _612
REMARK  228  A    between atoms: _612  and  _613
REMARK  229  A    between atoms: _618  and  _620
REMARK  230  A    between atoms: _620  and  _621
REMARK  231  A    between atoms: _620  and  _623
REMARK  232  A    between atoms: _623  and  _624
REMARK  233  A    between atoms: _627  and  _629
REMARK  234  A    between atoms: _629  and  _630
REMARK  235  A    between atoms: _629  and  _632
REMARK  236  A    between atoms: _632  and  _633
REMARK  237  A    between atoms: _639  and  _641
REMARK  238  A    between atoms: _641  and  _642
REMARK  239  A    between atoms: _641  and  _644
REMARK  240  A    between atoms: _644  and  _645
REMARK  241  A    between atoms: _650  and  _652
REMARK  242  A    between atoms: _652  and  _653
REMARK  243  A    between atoms: _652  and  _655
REMARK  244  A    between atoms: _655  and  _656
REMARK  245  A    between atoms: _658  and  _660
REMARK  246  A    between atoms: _660  and  _661
REMARK  247  A    between atoms: _664  and  _666
REMARK  248  A    between atoms: _666  and  _667
REMARK  249  A    between atoms: _666  and  _669
REMARK  250  A    between atoms: _669  and  _670
REMARK  251  A    between atoms: _675  and  _677
REMARK  252  A    between atoms: _677  and  _678
REMARK  253  A    between atoms: _677  and  _680
REMARK  254  A    between atoms: _680  and  _681
REMARK  255  A    between atoms: _684  and  _686
REMARK  256  A    between atoms: _686  and  _687
REMARK  257  A    between atoms: _686  and  _689
REMARK  258  A    between atoms: _689  and  _690
REMARK  259  A    between atoms: _690  and  _691
REMARK  260  A    between atoms: _693  and  _695
REMARK  261  A    between atoms: _695  and  _696
REMARK  262  A    between atoms: _695  and  _698
REMARK  263  A    between atoms: _698  and  _699
REMARK  264  A    between atoms: _704  and  _705
REMARK  265  A    between atoms: _708  and  _709
REMARK  266  A    between atoms: _714  and  _716
REMARK  267  A    between atoms: _716  and  _717
REMARK  268  A    between atoms: _716  and  _719
REMARK  269  A    between atoms: _719  and  _720
REMARK                            x       y       z     vdW  Elec       q    Type
REMARK                         _______ _______ _______ _____ _____    ______ ____
ROOT
ATOM      1  O   HOH     1      42.567  31.921  35.154  0.00  0.00    +0.000 OA
ENDROOT
TORSDOF 0
REMARK  Name = ../refined-set-2016/1hfs/1hfs_pocket.pdb
REMARK  269 active torsions:
REMARK  status: ('A' for Active; 'I' for Inactive)
REMARK    1  A    between atoms: _1  and  _3
REMARK    2  A    between atoms: _3  and  _4
REMARK    3  A    between atoms: _3  and  _6
REMARK    4  A    between atoms: _6  and  _7
REMARK    5  A    between atoms: _11  and  ZN_724
REMARK    6  A    between atoms: _12  and  _14
REMARK    7  A    between atoms: _14  and  _15
REMARK    8  A    between atoms: _14  and  _17
REMARK    9  A    between atoms: _17  and  _18
REMARK   10  A    between atoms: _18  and  _20
REMARK   11  A    between atoms: _20  and  ZN_724
REMARK   12  A    between atoms: _21  and  _23
REMARK   13  A    between atoms: _23  and  _24
REMARK   14  A    between atoms: _23  and  _26
REMARK   15  A    between atoms: _26  and  _27
REMARK   16  A    between atoms: _33  and  _35
REMARK   17  A    between atoms: _35  and  _36
REMARK   18  A    between atoms: _35  and  _38
REMARK   19  A    between atoms: _38  and  _39
REMARK   20  A    between atoms: _44  and  _45
REMARK   21  A    between atoms: _48  and  _49
REMARK   22  A    between atoms: _54  and  _56
REMARK   23  A    between atoms: _56  and  _57
REMARK   24  A    between atoms: _56  and  _59
REMARK   25  A    between atoms: _59  and  _60
REMARK   26  A    between atoms: _66  and  _68
REMARK   27  A    between atoms: _68  and  _69
REMARK   28  A    between atoms: _68  and  _71
REMARK   29  A    between atoms: _71  and  _72
REMARK   30  A    between atoms: _76  and  _77
REMARK   31  A    between atoms: _82  and  _84
REMARK   32  A    between atoms: _89  and  _92
REMARK   33  A    between atoms: _92  and  _93
REMARK   34  A    between atoms: _100  and  _103
REMARK   35  A    between atoms: _101  and  _106
REMARK   36  A    between atoms: _106  and  _108
REMARK   37  A    between atoms: _108  and  _109
REMARK   38  A    between atoms: _108  and  _111
REMARK   39  A    between atoms: _111  and  _112
REMARK   40  A    between atoms: _115  and  _117
REMARK   41  A    between atoms: _117  and  _118
REMARK   42  A    between atoms: _121  and  _123
REMARK   43  A    between atoms: _123  and  _124
REMARK   44  A    between atoms: _123  and  _126
REMARK   45  A    between atoms: _126  and  _127
REMARK   46  A    between atoms: _131  and  ZN_724
REMARK   47  A    between atoms: _132  and  _134
REMARK   48  A    between atoms: _134  and  _135
REMARK   49  A    between atoms: _138  and  _140
REMARK   50  A    between atoms: _140  and  _141
REMARK   51  A    between atoms: _140  and  _143
REMARK   52  A    between atoms: _143  and  _144
REMARK   53  A    between atoms: _149  and  _150
REMARK   54  A    between atoms: _152  and  _154
REMARK   55  A    between atoms: _154  and  _155
REMARK   56  A    between atoms: _158  and  _160
REMARK   57  A    between atoms: _160  and  _161
REMARK   58  A    between atoms: _160  and  _163
REMARK   59  A    between atoms: _163  and  _164
REMARK   60  A    between atoms: _167  and  _169
REMARK   61  A    between atoms: _169  and  _170
REMARK   62  A    between atoms: _172  and  _174
REMARK   63  A    between atoms: _174  and  _175
REMARK   64  A    between atoms: _174  and  _177
REMARK   65  A    between atoms: _177  and  _178
REMARK   66  A    between atoms: _181  and  _183
REMARK   67  A    between atoms: _183  and  _184
REMARK   68  A    between atoms: _183  and  _186
REMARK   69  A    between atoms: _186  and  _187
REMARK   70  A    between atoms: _188  and  ZN_724
REMARK   71  A    between atoms: _192  and  _194
REMARK   72  A    between atoms: _194  and  _195
REMARK   73  A    between atoms: _194  and  _197
REMARK   74  A    between atoms: _197  and  _198
REMARK   75  A    between atoms: _201  and  _203
REMARK   76  A    between atoms: _203  and  _204
REMARK   77  A    between atoms: _203  and  _206
REMARK   78  A    between atoms: _206  and  _207
REMARK   79  A    between atoms: _207  and  _208
REMARK   80  A    between atoms: _211  and  _213
REMARK   81  A    between atoms: _213  and  _214
REMARK   82  A    between atoms: _213  and  _216
REMARK   83  A    between atoms: _216  and  _217
REMARK   84  A    between atoms: _227  and  _229
REMARK   85  A    between atoms: _229  and  _230
REMARK   86  A    between atoms: _232  and  _234
REMARK   87  A    between atoms: _234  and  _235
REMARK   88  A    between atoms: _234  and  _237
REMARK   89  A    between atoms: _237  and  _238
REMARK   90  A    between atoms: _241  and  _243
REMARK   91  A    between atoms: _243  and  _244
REMARK   92  A    between atoms: _243  and  _246
REMARK   93  A    between atoms: _246  and  _247
REMARK   94  A    between atoms: _252  and  _254
REMARK   95  A    between atoms: _254  and  _255
REMARK   96  A    between atoms: _254  and  _257
REMARK   97  A    between atoms: _257  and  _258
REMARK   98  A    between atoms: _261  and  _263
REMARK   99  A    between atoms: _263  and  _264
REMARK  100  A    between atoms: _263  and  _266
REMARK  101  A    between atoms: _266  and  _267
REMARK  102  A    between atoms: _273  and  _275
REMARK  103  A    between atoms: _275  and  _276
REMARK  104  A    between atoms: _275  and  _278
REMARK  105  A    between atoms: _278  and  _279
REMARK  106  A    between atoms: _282  and  _284
REMARK  107  A    between atoms: _284  and  _285
REMARK  108  A    between atoms: _284  and  _287
REMARK  109  A    between atoms: _290  and  _292
REMARK  110  A    between atoms: _292  and  _293
REMARK  111  A    between atoms: _296  and  _298
REMARK  112  A    between atoms: _298  and  _299
REMARK  113  A    between atoms: _302  and  _304
REMARK  114  A    between atoms: _315  and  _318
REMARK  115  A    between atoms: _318  and  _319
REMARK  116  A    between atoms: _319  and  _320
REMARK  117  A    between atoms: _325  and  _328
REMARK  118  A    between atoms: _328  and  _329
REMARK  119  A    between atoms: _339  and  _340
REMARK  120  A    between atoms: _348  and  _350
REMARK  121  A    between atoms: _350  and  _351
REMARK  122  A    between atoms: _350  and  _353
REMARK  123  A    between atoms: _353  and  _354
REMARK  124  A    between atoms: _356  and  _358
REMARK  125  A    between atoms: _358  and  _359
REMARK  126  A    between atoms: _358  and  _361
REMARK  127  A    between atoms: _361  and  _362
REMARK  128  A    between atoms: _366  and  ZN_723
REMARK  129  A    between atoms: _367  and  _369
REMARK  130  A    between atoms: _369  and  _370
REMARK  131  A    between atoms: _369  and  _372
REMARK  132  A    between atoms: _372  and  _373
REMARK  133  A    between atoms: _375  and  _377
REMARK  134  A    between atoms: _377  and  _378
REMARK  135  A    between atoms: _377  and  _380
REMARK  136  A    between atoms: _380  and  _381
REMARK  137  A    between atoms: _386  and  _388
REMARK  138  A    between atoms: _388  and  _389
REMARK  139  A    between atoms: _388  and  _391
REMARK  140  A    between atoms: _391  and  _392
REMARK  141  A    between atoms: _395  and  _397
REMARK  142  A    between atoms: _397  and  _398
REMARK  143  A    between atoms: _397  and  _400
REMARK  144  A    between atoms: _400  and  _401
REMARK  145  A    between atoms: _401  and  _402
REMARK  146  A    between atoms: _405  and  _407
REMARK  147  A    between atoms: _407  and  _408
REMARK  148  A    between atoms: _411  and  _413
REMARK  149  A    between atoms: _413  and  _414
REMARK  150  A    between atoms: _413  and  _416
REMARK  151  A    between atoms: _416  and  _417
REMARK  152  A    between atoms: _420  and  _422
REMARK  153  A    between atoms: _422  and  _423
REMARK  154  A    between atoms: _422  and  _425
REMARK  155  A    between atoms: _425  and  _426
REMARK  156  A    between atoms: _426  and  _427
REMARK  157  A    between atoms: _429  and  _431
REMARK  158  A    between atoms: _431  and  _432
REMARK  159  A    between atoms: _431  and  _434
REMARK  160  A    between atoms: _434  and  _435
REMARK  161  A    between atoms: _440  and  _441
REMARK  162  A    between atoms: _444  and  _445
REMARK  163  A    between atoms: _450  and  _452
REMARK  164  A    between atoms: _452  and  _453
REMARK  165  A    between atoms: _452  and  _455
REMARK  166  A    between atoms: _455  and  _456
REMARK  167  A    between atoms: _459  and  _461
REMARK  168  A    between atoms: _461  and  _462
REMARK  169  A    between atoms: _461  and  _464
REMARK  170  A    between atoms: _464  and  _465
REMARK  171  A    between atoms: _470  and  _471
REMARK  172  A    between atoms: _473  and  _475
REMARK  173  A    between atoms: _475  and  _476
REMARK  174  A    between atoms: _475  and  _478
REMARK  175  A    between atoms: _478  and  _479
REMARK  176  A    between atoms: _484  and  _486
REMARK  177  A    between atoms: _486  and  _487
REMARK  178  A    between atoms: _486  and  _489
REMARK  179  A    between atoms: _489  and  _490
REMARK  180  A    between atoms: _492  and  _494
REMARK  181  A    between atoms: _494  and  _495
REMARK  182  A    between atoms: _494  and  _497
REMARK  183  A    between atoms: _497  and  _498
REMARK  184  A    between atoms: _501  and  _503
REMARK  185  A    between atoms: _503  and  _504
REMARK  186  A    between atoms: _503  and  _506
REMARK  187  A    between atoms: _506  and  _507
REMARK  188  A    between atoms: _510  and  _512
REMARK  189  A    between atoms: _512  and  _513
REMARK  190  A    between atoms: _512  and  _515
REMARK  191  A    between atoms: _515  and  _516
REMARK  192  A    between atoms: _519  and  _521
REMARK  193  A    between atoms: _521  and  _522
REMARK  194  A    between atoms: _521  and  _524
REMARK  195  A    between atoms: _524  and  _525
REMARK  196  A    between atoms: _528  and  _530
REMARK  197  A    between atoms: _530  and  _531
REMARK  198  A    between atoms: _530  and  _533
REMARK  199  A    between atoms: _533  and  _534
REMARK  200  A    between atoms: _534  and  _535
REMARK  201  A    between atoms: _535  and  _536
REMARK  202  A    between atoms: _545  and  _547
REMARK  203  A    between atoms: _547  and  _548
REMARK  204  A    between atoms: _547  and  _550
REMARK  205  A    between atoms: _550  and  _551
REMARK  206  A    between atoms: _557  and  _559
REMARK  207  A    between atoms: _559  and  _560
REMARK  208  A    between atoms: _559  and  _562
REMARK  209  A    between atoms: _562  and  _563
REMARK  210  A    between atoms: _563  and  _564
REMARK  211  A    between atoms: _564  and  _565
REMARK  212  A    between atoms: _574  and  _576
REMARK  213  A    between atoms: _576  and  _577
REMARK  214  A    between atoms: _576  and  _579
REMARK  215  A    between atoms: _579  and  _580
REMARK  216  A    between atoms: _582  and  _584
REMARK  217  A    between atoms: _584  and  _585
REMARK  218  A    between atoms: _584  and  _587
REMARK  219  A    between atoms: _587  and  _588
REMARK  220  A    between atoms: _591  and  _593
REMARK  221  A    between atoms: _593  and  _594
REMARK  222  A    between atoms: _593  and  _596
REMARK  223  A    between atoms: _596  and  _597
REMARK  224  A    between atoms: _601  and  _602
REMARK  225  A    between atoms: _607  and  _609
REMARK  226  A    between atoms: _609  and  _610
REMARK  227  A    between atoms: _609  and  _612
REMARK  228  A    between atoms: _612  and  _613
REMARK  229  A    between atoms: _618  and  _620
REMARK  230  A    between atoms: _620  and  _621
REMARK  231  A    between atoms: _620  and  _623
REMARK  232  A    between atoms: _623  and  _624
REMARK  233  A    between atoms: _627  and  _629
REMARK  234  A    between atoms: _629  and  _630
REMARK  235  A    between atoms: _629  and  _632
REMARK  236  A    between atoms: _632  and  _633
REMARK  237  A    between atoms: _639  and  _641
REMARK  238  A    between atoms: _641  and  _642
REMARK  239  A    between atoms: _641  and  _644
REMARK  240  A    between atoms: _644  and  _645
REMARK  241  A    between atoms: _650  and  _652
REMARK  242  A    between atoms: _652  and  _653
REMARK  243  A    between atoms: _652  and  _655
REMARK  244  A    between atoms: _655  and  _656
REMARK  245  A    between atoms: _658  and  _660
REMARK  246  A    between atoms: _660  and  _661
REMARK  247  A    between atoms: _664  and  _666
REMARK  248  A    between atoms: _666  and  _667
REMARK  249  A    between atoms: _666  and  _669
REMARK  250  A    between atoms: _669  and  _670
REMARK  251  A    between atoms: _675  and  _677
REMARK  252  A    between atoms: _677  and  _678
REMARK  253  A    between atoms: _677  and  _680
REMARK  254  A    between atoms: _680  and  _681
REMARK  255  A    between atoms: _684  and  _686
REMARK  256  A    between atoms: _686  and  _687
REMARK  257  A    between atoms: _686  and  _689
REMARK  258  A    between atoms: _689  and  _690
REMARK  259  A    between atoms: _690  and  _691
REMARK  260  A    between atoms: _693  and  _695
REMARK  261  A    between atoms: _695  and  _696
REMARK  262  A    between atoms: _695  and  _698
REMARK  263  A    between atoms: _698  and  _699
REMARK  264  A    between atoms: _704  and  _705
REMARK  265  A    between atoms: _708  and  _709
REMARK  266  A    between atoms: _714  and  _716
REMARK  267  A    between atoms: _716  and  _717
REMARK  268  A    between atoms: _716  and  _719
REMARK  269  A    between atoms: _719  and  _720
REMARK                            x       y       z     vdW  Elec       q    Type
REMARK                         _______ _______ _______ _____ _____    ______ ____
ROOT
ATOM      1  O   HOH     1      32.475  40.531  14.441  0.00  0.00    +0.000 OA
ENDROOT
TORSDOF 0
REMARK  Name = ../refined-set-2016/1hfs/1hfs_pocket.pdb
REMARK  269 active torsions:
REMARK  status: ('A' for Active; 'I' for Inactive)
REMARK    1  A    between atoms: _1  and  _3
REMARK    2  A    between atoms: _3  and  _4
REMARK    3  A    between atoms: _3  and  _6
REMARK    4  A    between atoms: _6  and  _7
REMARK    5  A    between atoms: _11  and  ZN_724
REMARK    6  A    between atoms: _12  and  _14
REMARK    7  A    between atoms: _14  and  _15
REMARK    8  A    between atoms: _14  and  _17
REMARK    9  A    between atoms: _17  and  _18
REMARK   10  A    between atoms: _18  and  _20
REMARK   11  A    between atoms: _20  and  ZN_724
REMARK   12  A    between atoms: _21  and  _23
REMARK   13  A    between atoms: _23  and  _24
REMARK   14  A    between atoms: _23  and  _26
REMARK   15  A    between atoms: _26  and  _27
REMARK   16  A    between atoms: _33  and  _35
REMARK   17  A    between atoms: _35  and  _36
REMARK   18  A    between atoms: _35  and  _38
REMARK   19  A    between atoms: _38  and  _39
REMARK   20  A    between atoms: _44  and  _45
REMARK   21  A    between atoms: _48  and  _49
REMARK   22  A    between atoms: _54  and  _56
REMARK   23  A    between atoms: _56  and  _57
REMARK   24  A    between atoms: _56  and  _59
REMARK   25  A    between atoms: _59  and  _60
REMARK   26  A    between atoms: _66  and  _68
REMARK   27  A    between atoms: _68  and  _69
REMARK   28  A    between atoms: _68  and  _71
REMARK   29  A    between atoms: _71  and  _72
REMARK   30  A    between atoms: _76  and  _77
REMARK   31  A    between atoms: _82  and  _84
REMARK   32  A    between atoms: _89  and  _92
REMARK   33  A    between atoms: _92  and  _93
REMARK   34  A    between atoms: _100  and  _103
REMARK   35  A    between atoms: _101  and  _106
REMARK   36  A    between atoms: _106  and  _108
REMARK   37  A    between atoms: _108  and  _109
REMARK   38  A    between atoms: _108  and  _111
REMARK   39  A    between atoms: _111  and  _112
REMARK   40  A    between atoms: _115  and  _117
REMARK   41  A    between atoms: _117  and  _118
REMARK   42  A    between atoms: _121  and  _123
REMARK   43  A    between atoms: _123  and  _124
REMARK   44  A    between atoms: _123  and  _126
REMARK   45  A    between atoms: _126  and  _127
REMARK   46  A    between atoms: _131  and  ZN_724
REMARK   47  A    between atoms: _132  and  _134
REMARK   48  A    between atoms: _134  and  _135
REMARK   49  A    between atoms: _138  and  _140
REMARK   50  A    between atoms: _140  and  _141
REMARK   51  A    between atoms: _140  and  _143
REMARK   52  A    between atoms: _143  and  _144
REMARK   53  A    between atoms: _149  and  _150
REMARK   54  A    between atoms: _152  and  _154
REMARK   55  A    between atoms: _154  and  _155
REMARK   56  A    between atoms: _158  and  _160
REMARK   57  A    between atoms: _160  and  _161
REMARK   58  A    between atoms: _160  and  _163
REMARK   59  A    between atoms: _163  and  _164
REMARK   60  A    between atoms: _167  and  _169
REMARK   61  A    between atoms: _169  and  _170
REMARK   62  A    between atoms: _172  and  _174
REMARK   63  A    between atoms: _174  and  _175
REMARK   64  A    between atoms: _174  and  _177
REMARK   65  A    between atoms: _177  and  _178
REMARK   66  A    between atoms: _181  and  _183
REMARK   67  A    between atoms: _183  and  _184
REMARK   68  A    between atoms: _183  and  _186
REMARK   69  A    between atoms: _186  and  _187
REMARK   70  A    between atoms: _188  and  ZN_724
REMARK   71  A    between atoms: _192  and  _194
REMARK   72  A    between atoms: _194  and  _195
REMARK   73  A    between atoms: _194  and  _197
REMARK   74  A    between atoms: _197  and  _198
REMARK   75  A    between atoms: _201  and  _203
REMARK   76  A    between atoms: _203  and  _204
REMARK   77  A    between atoms: _203  and  _206
REMARK   78  A    between atoms: _206  and  _207
REMARK   79  A    between atoms: _207  and  _208
REMARK   80  A    between atoms: _211  and  _213
REMARK   81  A    between atoms: _213  and  _214
REMARK   82  A    between atoms: _213  and  _216
REMARK   83  A    between atoms: _216  and  _217
REMARK   84  A    between atoms: _227  and  _229
REMARK   85  A    between atoms: _229  and  _230
REMARK   86  A    between atoms: _232  and  _234
REMARK   87  A    between atoms: _234  and  _235
REMARK   88  A    between atoms: _234  and  _237
REMARK   89  A    between atoms: _237  and  _238
REMARK   90  A    between atoms: _241  and  _243
REMARK   91  A    between atoms: _243  and  _244
REMARK   92  A    between atoms: _243  and  _246
REMARK   93  A    between atoms: _246  and  _247
REMARK   94  A    between atoms: _252  and  _254
REMARK   95  A    between atoms: _254  and  _255
REMARK   96  A    between atoms: _254  and  _257
REMARK   97  A    between atoms: _257  and  _258
REMARK   98  A    between atoms: _261  and  _263
REMARK   99  A    between atoms: _263  and  _264
REMARK  100  A    between atoms: _263  and  _266
REMARK  101  A    between atoms: _266  and  _267
REMARK  102  A    between atoms: _273  and  _275
REMARK  103  A    between atoms: _275  and  _276
REMARK  104  A    between atoms: _275  and  _278
REMARK  105  A    between atoms: _278  and  _279
REMARK  106  A    between atoms: _282  and  _284
REMARK  107  A    between atoms: _284  and  _285
REMARK  108  A    between atoms: _284  and  _287
REMARK  109  A    between atoms: _290  and  _292
REMARK  110  A    between atoms: _292  and  _293
REMARK  111  A    between atoms: _296  and  _298
REMARK  112  A    between atoms: _298  and  _299
REMARK  113  A    between atoms: _302  and  _304
REMARK  114  A    between atoms: _315  and  _318
REMARK  115  A    between atoms: _318  and  _319
REMARK  116  A    between atoms: _319  and  _320
REMARK  117  A    between atoms: _325  and  _328
REMARK  118  A    between atoms: _328  and  _329
REMARK  119  A    between atoms: _339  and  _340
REMARK  120  A    between atoms: _348  and  _350
REMARK  121  A    between atoms: _350  and  _351
REMARK  122  A    between atoms: _350  and  _353
REMARK  123  A    between atoms: _353  and  _354
REMARK  124  A    between atoms: _356  and  _358
REMARK  125  A    between atoms: _358  and  _359
REMARK  126  A    between atoms: _358  and  _361
REMARK  127  A    between atoms: _361  and  _362
REMARK  128  A    between atoms: _366  and  ZN_723
REMARK  129  A    between atoms: _367  and  _369
REMARK  130  A    between atoms: _369  and  _370
REMARK  131  A    between atoms: _369  and  _372
REMARK  132  A    between atoms: _372  and  _373
REMARK  133  A    between atoms: _375  and  _377
REMARK  134  A    between atoms: _377  and  _378
REMARK  135  A    between atoms: _377  and  _380
REMARK  136  A    between atoms: _380  and  _381
REMARK  137  A    between atoms: _386  and  _388
REMARK  138  A    between atoms: _388  and  _389
REMARK  139  A    between atoms: _388  and  _391
REMARK  140  A    between atoms: _391  and  _392
REMARK  141  A    between atoms: _395  and  _397
REMARK  142  A    between atoms: _397  and  _398
REMARK  143  A    between atoms: _397  and  _400
REMARK  144  A    between atoms: _400  and  _401
REMARK  145  A    between atoms: _401  and  _402
REMARK  146  A    between atoms: _405  and  _407
REMARK  147  A    between atoms: _407  and  _408
REMARK  148  A    between atoms: _411  and  _413
REMARK  149  A    between atoms: _413  and  _414
REMARK  150  A    between atoms: _413  and  _416
REMARK  151  A    between atoms: _416  and  _417
REMARK  152  A    between atoms: _420  and  _422
REMARK  153  A    between atoms: _422  and  _423
REMARK  154  A    between atoms: _422  and  _425
REMARK  155  A    between atoms: _425  and  _426
REMARK  156  A    between atoms: _426  and  _427
REMARK  157  A    between atoms: _429  and  _431
REMARK  158  A    between atoms: _431  and  _432
REMARK  159  A    between atoms: _431  and  _434
REMARK  160  A    between atoms: _434  and  _435
REMARK  161  A    between atoms: _440  and  _441
REMARK  162  A    between atoms: _444  and  _445
REMARK  163  A    between atoms: _450  and  _452
REMARK  164  A    between atoms: _452  and  _453
REMARK  165  A    between atoms: _452  and  _455
REMARK  166  A    between atoms: _455  and  _456
REMARK  167  A    between atoms: _459  and  _461
REMARK  168  A    between atoms: _461  and  _462
REMARK  169  A    between atoms: _461  and  _464
REMARK  170  A    between atoms: _464  and  _465
REMARK  171  A    between atoms: _470  and  _471
REMARK  172  A    between atoms: _473  and  _475
REMARK  173  A    between atoms: _475  and  _476
REMARK  174  A    between atoms: _475  and  _478
REMARK  175  A    between atoms: _478  and  _479
REMARK  176  A    between atoms: _484  and  _486
REMARK  177  A    between atoms: _486  and  _487
REMARK  178  A    between atoms: _486  and  _489
REMARK  179  A    between atoms: _489  and  _490
REMARK  180  A    between atoms: _492  and  _494
REMARK  181  A    between atoms: _494  and  _495
REMARK  182  A    between atoms: _494  and  _497
REMARK  183  A    between atoms: _497  and  _498
REMARK  184  A    between atoms: _501  and  _503
REMARK  185  A    between atoms: _503  and  _504
REMARK  186  A    between atoms: _503  and  _506
REMARK  187  A    between atoms: _506  and  _507
REMARK  188  A    between atoms: _510  and  _512
REMARK  189  A    between atoms: _512  and  _513
REMARK  190  A    between atoms: _512  and  _515
REMARK  191  A    between atoms: _515  and  _516
REMARK  192  A    between atoms: _519  and  _521
REMARK  193  A    between atoms: _521  and  _522
REMARK  194  A    between atoms: _521  and  _524
REMARK  195  A    between atoms: _524  and  _525
REMARK  196  A    between atoms: _528  and  _530
REMARK  197  A    between atoms: _530  and  _531
REMARK  198  A    between atoms: _530  and  _533
REMARK  199  A    between atoms: _533  and  _534
REMARK  200  A    between atoms: _534  and  _535
REMARK  201  A    between atoms: _535  and  _536
REMARK  202  A    between atoms: _545  and  _547
REMARK  203  A    between atoms: _547  and  _548
REMARK  204  A    between atoms: _547  and  _550
REMARK  205  A    between atoms: _550  and  _551
REMARK  206  A    between atoms: _557  and  _559
REMARK  207  A    between atoms: _559  and  _560
REMARK  208  A    between atoms: _559  and  _562
REMARK  209  A    between atoms: _562  and  _563
REMARK  210  A    between atoms: _563  and  _564
REMARK  211  A    between atoms: _564  and  _565
REMARK  212  A    between atoms: _574  and  _576
REMARK  213  A    between atoms: _576  and  _577
REMARK  214  A    between atoms: _576  and  _579
REMARK  215  A    between atoms: _579  and  _580
REMARK  216  A    between atoms: _582  and  _584
REMARK  217  A    between atoms: _584  and  _585
REMARK  218  A    between atoms: _584  and  _587
REMARK  219  A    between atoms: _587  and  _588
REMARK  220  A    between atoms: _591  and  _593
REMARK  221  A    between atoms: _593  and  _594
REMARK  222  A    between atoms: _593  and  _596
REMARK  223  A    between atoms: _596  and  _597
REMARK  224  A    between atoms: _601  and  _602
REMARK  225  A    between atoms: _607  and  _609
REMARK  226  A    between atoms: _609  and  _610
REMARK  227  A    between atoms: _609  and  _612
REMARK  228  A    between atoms: _612  and  _613
REMARK  229  A    between atoms: _618  and  _620
REMARK  230  A    between atoms: _620  and  _621
REMARK  231  A    between atoms: _620  and  _623
REMARK  232  A    between atoms: _623  and  _624
REMARK  233  A    between atoms: _627  and  _629
REMARK  234  A    between atoms: _629  and  _630
REMARK  235  A    between atoms: _629  and  _632
REMARK  236  A    between atoms: _632  and  _633
REMARK  237  A    between atoms: _639  and  _641
REMARK  238  A    between atoms: _641  and  _642
REMARK  239  A    between atoms: _641  and  _644
REMARK  240  A    between atoms: _644  and  _645
REMARK  241  A    between atoms: _650  and  _652
REMARK  242  A    between atoms: _652  and  _653
REMARK  243  A    between atoms: _652  and  _655
REMARK  244  A    between atoms: _655  and  _656
REMARK  245  A    between atoms: _658  and  _660
REMARK  246  A    between atoms: _660  and  _661
REMARK  247  A    between atoms: _664  and  _666
REMARK  248  A    between atoms: _666  and  _667
REMARK  249  A    between atoms: _666  and  _669
REMARK  250  A    between atoms: _669  and  _670
REMARK  251  A    between atoms: _675  and  _677
REMARK  252  A    between atoms: _677  and  _678
REMARK  253  A    between atoms: _677  and  _680
REMARK  254  A    between atoms: _680  and  _681
REMARK  255  A    between atoms: _684  and  _686
REMARK  256  A    between atoms: _686  and  _687
REMARK  257  A    between atoms: _686  and  _689
REMARK  258  A    between atoms: _689  and  _690
REMARK  259  A    between atoms: _690  and  _691
REMARK  260  A    between atoms: _693  and  _695
REMARK  261  A    between atoms: _695  and  _696
REMARK  262  A    between atoms: _695  and  _698
REMARK  263  A    between atoms: _698  and  _699
REMARK  264  A    between atoms: _704  and  _705
REMARK  265  A    between atoms: _708  and  _709
REMARK  266  A    between atoms: _714  and  _716
REMARK  267  A    between atoms: _716  and  _717
REMARK  268  A    between atoms: _716  and  _719
REMARK  269  A    between atoms: _719  and  _720
REMARK                            x       y       z     vdW  Elec       q    Type
REMARK                         _______ _______ _______ _____ _____    ______ ____
ROOT
ATOM      1  O   HOH     1      22.448  39.497  25.565  0.00  0.00    +0.000 OA
ENDROOT
TORSDOF 0
REMARK  Name = ../refined-set-2016/1hfs/1hfs_pocket.pdb
REMARK  269 active torsions:
REMARK  status: ('A' for Active; 'I' for Inactive)
REMARK    1  A    between atoms: _1  and  _3
REMARK    2  A    between atoms: _3  and  _4
REMARK    3  A    between atoms: _3  and  _6
REMARK    4  A    between atoms: _6  and  _7
REMARK    5  A    between atoms: _11  and  ZN_724
REMARK    6  A    between atoms: _12  and  _14
REMARK    7  A    between atoms: _14  and  _15
REMARK    8  A    between atoms: _14  and  _17
REMARK    9  A    between atoms: _17  and  _18
REMARK   10  A    between atoms: _18  and  _20
REMARK   11  A    between atoms: _20  and  ZN_724
REMARK   12  A    between atoms: _21  and  _23
REMARK   13  A    between atoms: _23  and  _24
REMARK   14  A    between atoms: _23  and  _26
REMARK   15  A    between atoms: _26  and  _27
REMARK   16  A    between atoms: _33  and  _35
REMARK   17  A    between atoms: _35  and  _36
REMARK   18  A    between atoms: _35  and  _38
REMARK   19  A    between atoms: _38  and  _39
REMARK   20  A    between atoms: _44  and  _45
REMARK   21  A    between atoms: _48  and  _49
REMARK   22  A    between atoms: _54  and  _56
REMARK   23  A    between atoms: _56  and  _57
REMARK   24  A    between atoms: _56  and  _59
REMARK   25  A    between atoms: _59  and  _60
REMARK   26  A    between atoms: _66  and  _68
REMARK   27  A    between atoms: _68  and  _69
REMARK   28  A    between atoms: _68  and  _71
REMARK   29  A    between atoms: _71  and  _72
REMARK   30  A    between atoms: _76  and  _77
REMARK   31  A    between atoms: _82  and  _84
REMARK   32  A    between atoms: _89  and  _92
REMARK   33  A    between atoms: _92  and  _93
REMARK   34  A    between atoms: _100  and  _103
REMARK   35  A    between atoms: _101  and  _106
REMARK   36  A    between atoms: _106  and  _108
REMARK   37  A    between atoms: _108  and  _109
REMARK   38  A    between atoms: _108  and  _111
REMARK   39  A    between atoms: _111  and  _112
REMARK   40  A    between atoms: _115  and  _117
REMARK   41  A    between atoms: _117  and  _118
REMARK   42  A    between atoms: _121  and  _123
REMARK   43  A    between atoms: _123  and  _124
REMARK   44  A    between atoms: _123  and  _126
REMARK   45  A    between atoms: _126  and  _127
REMARK   46  A    between atoms: _131  and  ZN_724
REMARK   47  A    between atoms: _132  and  _134
REMARK   48  A    between atoms: _134  and  _135
REMARK   49  A    between atoms: _138  and  _140
REMARK   50  A    between atoms: _140  and  _141
REMARK   51  A    between atoms: _140  and  _143
REMARK   52  A    between atoms: _143  and  _144
REMARK   53  A    between atoms: _149  and  _150
REMARK   54  A    between atoms: _152  and  _154
REMARK   55  A    between atoms: _154  and  _155
REMARK   56  A    between atoms: _158  and  _160
REMARK   57  A    between atoms: _160  and  _161
REMARK   58  A    between atoms: _160  and  _163
REMARK   59  A    between atoms: _163  and  _164
REMARK   60  A    between atoms: _167  and  _169
REMARK   61  A    between atoms: _169  and  _170
REMARK   62  A    between atoms: _172  and  _174
REMARK   63  A    between atoms: _174  and  _175
REMARK   64  A    between atoms: _174  and  _177
REMARK   65  A    between atoms: _177  and  _178
REMARK   66  A    between atoms: _181  and  _183
REMARK   67  A    between atoms: _183  and  _184
REMARK   68  A    between atoms: _183  and  _186
REMARK   69  A    between atoms: _186  and  _187
REMARK   70  A    between atoms: _188  and  ZN_724
REMARK   71  A    between atoms: _192  and  _194
REMARK   72  A    between atoms: _194  and  _195
REMARK   73  A    between atoms: _194  and  _197
REMARK   74  A    between atoms: _197  and  _198
REMARK   75  A    between atoms: _201  and  _203
REMARK   76  A    between atoms: _203  and  _204
REMARK   77  A    between atoms: _203  and  _206
REMARK   78  A    between atoms: _206  and  _207
REMARK   79  A    between atoms: _207  and  _208
REMARK   80  A    between atoms: _211  and  _213
REMARK   81  A    between atoms: _213  and  _214
REMARK   82  A    between atoms: _213  and  _216
REMARK   83  A    between atoms: _216  and  _217
REMARK   84  A    between atoms: _227  and  _229
REMARK   85  A    between atoms: _229  and  _230
REMARK   86  A    between atoms: _232  and  _234
REMARK   87  A    between atoms: _234  and  _235
REMARK   88  A    between atoms: _234  and  _237
REMARK   89  A    between atoms: _237  and  _238
REMARK   90  A    between atoms: _241  and  _243
REMARK   91  A    between atoms: _243  and  _244
REMARK   92  A    between atoms: _243  and  _246
REMARK   93  A    between atoms: _246  and  _247
REMARK   94  A    between atoms: _252  and  _254
REMARK   95  A    between atoms: _254  and  _255
REMARK   96  A    between atoms: _254  and  _257
REMARK   97  A    between atoms: _257  and  _258
REMARK   98  A    between atoms: _261  and  _263
REMARK   99  A    between atoms: _263  and  _264
REMARK  100  A    between atoms: _263  and  _266
REMARK  101  A    between atoms: _266  and  _267
REMARK  102  A    between atoms: _273  and  _275
REMARK  103  A    between atoms: _275  and  _276
REMARK  104  A    between atoms: _275  and  _278
REMARK  105  A    between atoms: _278  and  _279
REMARK  106  A    between atoms: _282  and  _284
REMARK  107  A    between atoms: _284  and  _285
REMARK  108  A    between atoms: _284  and  _287
REMARK  109  A    between atoms: _290  and  _292
REMARK  110  A    between atoms: _292  and  _293
REMARK  111  A    between atoms: _296  and  _298
REMARK  112  A    between atoms: _298  and  _299
REMARK  113  A    between atoms: _302  and  _304
REMARK  114  A    between atoms: _315  and  _318
REMARK  115  A    between atoms: _318  and  _319
REMARK  116  A    between atoms: _319  and  _320
REMARK  117  A    between atoms: _325  and  _328
REMARK  118  A    between atoms: _328  and  _329
REMARK  119  A    between atoms: _339  and  _340
REMARK  120  A    between atoms: _348  and  _350
REMARK  121  A    between atoms: _350  and  _351
REMARK  122  A    between atoms: _350  and  _353
REMARK  123  A    between atoms: _353  and  _354
REMARK  124  A    between atoms: _356  and  _358
REMARK  125  A    between atoms: _358  and  _359
REMARK  126  A    between atoms: _358  and  _361
REMARK  127  A    between atoms: _361  and  _362
REMARK  128  A    between atoms: _366  and  ZN_723
REMARK  129  A    between atoms: _367  and  _369
REMARK  130  A    between atoms: _369  and  _370
REMARK  131  A    between atoms: _369  and  _372
REMARK  132  A    between atoms: _372  and  _373
REMARK  133  A    between atoms: _375  and  _377
REMARK  134  A    between atoms: _377  and  _378
REMARK  135  A    between atoms: _377  and  _380
REMARK  136  A    between atoms: _380  and  _381
REMARK  137  A    between atoms: _386  and  _388
REMARK  138  A    between atoms: _388  and  _389
REMARK  139  A    between atoms: _388  and  _391
REMARK  140  A    between atoms: _391  and  _392
REMARK  141  A    between atoms: _395  and  _397
REMARK  142  A    between atoms: _397  and  _398
REMARK  143  A    between atoms: _397  and  _400
REMARK  144  A    between atoms: _400  and  _401
REMARK  145  A    between atoms: _401  and  _402
REMARK  146  A    between atoms: _405  and  _407
REMARK  147  A    between atoms: _407  and  _408
REMARK  148  A    between atoms: _411  and  _413
REMARK  149  A    between atoms: _413  and  _414
REMARK  150  A    between atoms: _413  and  _416
REMARK  151  A    between atoms: _416  and  _417
REMARK  152  A    between atoms: _420  and  _422
REMARK  153  A    between atoms: _422  and  _423
REMARK  154  A    between atoms: _422  and  _425
REMARK  155  A    between atoms: _425  and  _426
REMARK  156  A    between atoms: _426  and  _427
REMARK  157  A    between atoms: _429  and  _431
REMARK  158  A    between atoms: _431  and  _432
REMARK  159  A    between atoms: _431  and  _434
REMARK  160  A    between atoms: _434  and  _435
REMARK  161  A    between atoms: _440  and  _441
REMARK  162  A    between atoms: _444  and  _445
REMARK  163  A    between atoms: _450  and  _452
REMARK  164  A    between atoms: _452  and  _453
REMARK  165  A    between atoms: _452  and  _455
REMARK  166  A    between atoms: _455  and  _456
REMARK  167  A    between atoms: _459  and  _461
REMARK  168  A    between atoms: _461  and  _462
REMARK  169  A    between atoms: _461  and  _464
REMARK  170  A    between atoms: _464  and  _465
REMARK  171  A    between atoms: _470  and  _471
REMARK  172  A    between atoms: _473  and  _475
REMARK  173  A    between atoms: _475  and  _476
REMARK  174  A    between atoms: _475  and  _478
REMARK  175  A    between atoms: _478  and  _479
REMARK  176  A    between atoms: _484  and  _486
REMARK  177  A    between atoms: _486  and  _487
REMARK  178  A    between atoms: _486  and  _489
REMARK  179  A    between atoms: _489  and  _490
REMARK  180  A    between atoms: _492  and  _494
REMARK  181  A    between atoms: _494  and  _495
REMARK  182  A    between atoms: _494  and  _497
REMARK  183  A    between atoms: _497  and  _498
REMARK  184  A    between atoms: _501  and  _503
REMARK  185  A    between atoms: _503  and  _504
REMARK  186  A    between atoms: _503  and  _506
REMARK  187  A    between atoms: _506  and  _507
REMARK  188  A    between atoms: _510  and  _512
REMARK  189  A    between atoms: _512  and  _513
REMARK  190  A    between atoms: _512  and  _515
REMARK  191  A    between atoms: _515  and  _516
REMARK  192  A    between atoms: _519  and  _521
REMARK  193  A    between atoms: _521  and  _522
REMARK  194  A    between atoms: _521  and  _524
REMARK  195  A    between atoms: _524  and  _525
REMARK  196  A    between atoms: _528  and  _530
REMARK  197  A    between atoms: _530  and  _531
REMARK  198  A    between atoms: _530  and  _533
REMARK  199  A    between atoms: _533  and  _534
REMARK  200  A    between atoms: _534  and  _535
REMARK  201  A    between atoms: _535  and  _536
REMARK  202  A    between atoms: _545  and  _547
REMARK  203  A    between atoms: _547  and  _548
REMARK  204  A    between atoms: _547  and  _550
REMARK  205  A    between atoms: _550  and  _551
REMARK  206  A    between atoms: _557  and  _559
REMARK  207  A    between atoms: _559  and  _560
REMARK  208  A    between atoms: _559  and  _562
REMARK  209  A    between atoms: _562  and  _563
REMARK  210  A    between atoms: _563  and  _564
REMARK  211  A    between atoms: _564  and  _565
REMARK  212  A    between atoms: _574  and  _576
REMARK  213  A    between atoms: _576  and  _577
REMARK  214  A    between atoms: _576  and  _579
REMARK  215  A    between atoms: _579  and  _580
REMARK  216  A    between atoms: _582  and  _584
REMARK  217  A    between atoms: _584  and  _585
REMARK  218  A    between atoms: _584  and  _587
REMARK  219  A    between atoms: _587  and  _588
REMARK  220  A    between atoms: _591  and  _593
REMARK  221  A    between atoms: _593  and  _594
REMARK  222  A    between atoms: _593  and  _596
REMARK  223  A    between atoms: _596  and  _597
REMARK  224  A    between atoms: _601  and  _602
REMARK  225  A    between atoms: _607  and  _609
REMARK  226  A    between atoms: _609  and  _610
REMARK  227  A    between atoms: _609  and  _612
REMARK  228  A    between atoms: _612  and  _613
REMARK  229  A    between atoms: _618  and  _620
REMARK  230  A    between atoms: _620  and  _621
REMARK  231  A    between atoms: _620  and  _623
REMARK  232  A    between atoms: _623  and  _624
REMARK  233  A    between atoms: _627  and  _629
REMARK  234  A    between atoms: _629  and  _630
REMARK  235  A    between atoms: _629  and  _632
REMARK  236  A    between atoms: _632  and  _633
REMARK  237  A    between atoms: _639  and  _641
REMARK  238  A    between atoms: _641  and  _642
REMARK  239  A    between atoms: _641  and  _644
REMARK  240  A    between atoms: _644  and  _645
REMARK  241  A    between atoms: _650  and  _652
REMARK  242  A    between atoms: _652  and  _653
REMARK  243  A    between atoms: _652  and  _655
REMARK  244  A    between atoms: _655  and  _656
REMARK  245  A    between atoms: _658  and  _660
REMARK  246  A    between atoms: _660  and  _661
REMARK  247  A    between atoms: _664  and  _666
REMARK  248  A    between atoms: _666  and  _667
REMARK  249  A    between atoms: _666  and  _669
REMARK  250  A    between atoms: _669  and  _670
REMARK  251  A    between atoms: _675  and  _677
REMARK  252  A    between atoms: _677  and  _678
REMARK  253  A    between atoms: _677  and  _680
REMARK  254  A    between atoms: _680  and  _681
REMARK  255  A    between atoms: _684  and  _686
REMARK  256  A    between atoms: _686  and  _687
REMARK  257  A    between atoms: _686  and  _689
REMARK  258  A    between atoms: _689  and  _690
REMARK  259  A    between atoms: _690  and  _691
REMARK  260  A    between atoms: _693  and  _695
REMARK  261  A    between atoms: _695  and  _696
REMARK  262  A    between atoms: _695  and  _698
REMARK  263  A    between atoms: _698  and  _699
REMARK  264  A    between atoms: _704  and  _705
REMARK  265  A    between atoms: _708  and  _709
REMARK  266  A    between atoms: _714  and  _716
REMARK  267  A    between atoms: _716  and  _717
REMARK  268  A    between atoms: _716  and  _719
REMARK  269  A    between atoms: _719  and  _720
REMARK                            x       y       z     vdW  Elec       q    Type
REMARK                         _______ _______ _______ _____ _____    ______ ____
ROOT
ATOM      1  O   HOH     1      29.709  41.233  29.728  0.00  0.00    +0.000 OA
ENDROOT
TORSDOF 0
REMARK  Name = ../refined-set-2016/1hfs/1hfs_pocket.pdb
REMARK  269 active torsions:
REMARK  status: ('A' for Active; 'I' for Inactive)
REMARK    1  A    between atoms: _1  and  _3
REMARK    2  A    between atoms: _3  and  _4
REMARK    3  A    between atoms: _3  and  _6
REMARK    4  A    between atoms: _6  and  _7
REMARK    5  A    between atoms: _11  and  ZN_724
REMARK    6  A    between atoms: _12  and  _14
REMARK    7  A    between atoms: _14  and  _15
REMARK    8  A    between atoms: _14  and  _17
REMARK    9  A    between atoms: _17  and  _18
REMARK   10  A    between atoms: _18  and  _20
REMARK   11  A    between atoms: _20  and  ZN_724
REMARK   12  A    between atoms: _21  and  _23
REMARK   13  A    between atoms: _23  and  _24
REMARK   14  A    between atoms: _23  and  _26
REMARK   15  A    between atoms: _26  and  _27
REMARK   16  A    between atoms: _33  and  _35
REMARK   17  A    between atoms: _35  and  _36
REMARK   18  A    between atoms: _35  and  _38
REMARK   19  A    between atoms: _38  and  _39
REMARK   20  A    between atoms: _44  and  _45
REMARK   21  A    between atoms: _48  and  _49
REMARK   22  A    between atoms: _54  and  _56
REMARK   23  A    between atoms: _56  and  _57
REMARK   24  A    between atoms: _56  and  _59
REMARK   25  A    between atoms: _59  and  _60
REMARK   26  A    between atoms: _66  and  _68
REMARK   27  A    between atoms: _68  and  _69
REMARK   28  A    between atoms: _68  and  _71
REMARK   29  A    between atoms: _71  and  _72
REMARK   30  A    between atoms: _76  and  _77
REMARK   31  A    between atoms: _82  and  _84
REMARK   32  A    between atoms: _89  and  _92
REMARK   33  A    between atoms: _92  and  _93
REMARK   34  A    between atoms: _100  and  _103
REMARK   35  A    between atoms: _101  and  _106
REMARK   36  A    between atoms: _106  and  _108
REMARK   37  A    between atoms: _108  and  _109
REMARK   38  A    between atoms: _108  and  _111
REMARK   39  A    between atoms: _111  and  _112
REMARK   40  A    between atoms: _115  and  _117
REMARK   41  A    between atoms: _117  and  _118
REMARK   42  A    between atoms: _121  and  _123
REMARK   43  A    between atoms: _123  and  _124
REMARK   44  A    between atoms: _123  and  _126
REMARK   45  A    between atoms: _126  and  _127
REMARK   46  A    between atoms: _131  and  ZN_724
REMARK   47  A    between atoms: _132  and  _134
REMARK   48  A    between atoms: _134  and  _135
REMARK   49  A    between atoms: _138  and  _140
REMARK   50  A    between atoms: _140  and  _141
REMARK   51  A    between atoms: _140  and  _143
REMARK   52  A    between atoms: _143  and  _144
REMARK   53  A    between atoms: _149  and  _150
REMARK   54  A    between atoms: _152  and  _154
REMARK   55  A    between atoms: _154  and  _155
REMARK   56  A    between atoms: _158  and  _160
REMARK   57  A    between atoms: _160  and  _161
REMARK   58  A    between atoms: _160  and  _163
REMARK   59  A    between atoms: _163  and  _164
REMARK   60  A    between atoms: _167  and  _169
REMARK   61  A    between atoms: _169  and  _170
REMARK   62  A    between atoms: _172  and  _174
REMARK   63  A    between atoms: _174  and  _175
REMARK   64  A    between atoms: _174  and  _177
REMARK   65  A    between atoms: _177  and  _178
REMARK   66  A    between atoms: _181  and  _183
REMARK   67  A    between atoms: _183  and  _184
REMARK   68  A    between atoms: _183  and  _186
REMARK   69  A    between atoms: _186  and  _187
REMARK   70  A    between atoms: _188  and  ZN_724
REMARK   71  A    between atoms: _192  and  _194
REMARK   72  A    between atoms: _194  and  _195
REMARK   73  A    between atoms: _194  and  _197
REMARK   74  A    between atoms: _197  and  _198
REMARK   75  A    between atoms: _201  and  _203
REMARK   76  A    between atoms: _203  and  _204
REMARK   77  A    between atoms: _203  and  _206
REMARK   78  A    between atoms: _206  and  _207
REMARK   79  A    between atoms: _207  and  _208
REMARK   80  A    between atoms: _211  and  _213
REMARK   81  A    between atoms: _213  and  _214
REMARK   82  A    between atoms: _213  and  _216
REMARK   83  A    between atoms: _216  and  _217
REMARK   84  A    between atoms: _227  and  _229
REMARK   85  A    between atoms: _229  and  _230
REMARK   86  A    between atoms: _232  and  _234
REMARK   87  A    between atoms: _234  and  _235
REMARK   88  A    between atoms: _234  and  _237
REMARK   89  A    between atoms: _237  and  _238
REMARK   90  A    between atoms: _241  and  _243
REMARK   91  A    between atoms: _243  and  _244
REMARK   92  A    between atoms: _243  and  _246
REMARK   93  A    between atoms: _246  and  _247
REMARK   94  A    between atoms: _252  and  _254
REMARK   95  A    between atoms: _254  and  _255
REMARK   96  A    between atoms: _254  and  _257
REMARK   97  A    between atoms: _257  and  _258
REMARK   98  A    between atoms: _261  and  _263
REMARK   99  A    between atoms: _263  and  _264
REMARK  100  A    between atoms: _263  and  _266
REMARK  101  A    between atoms: _266  and  _267
REMARK  102  A    between atoms: _273  and  _275
REMARK  103  A    between atoms: _275  and  _276
REMARK  104  A    between atoms: _275  and  _278
REMARK  105  A    between atoms: _278  and  _279
REMARK  106  A    between atoms: _282  and  _284
REMARK  107  A    between atoms: _284  and  _285
REMARK  108  A    between atoms: _284  and  _287
REMARK  109  A    between atoms: _290  and  _292
REMARK  110  A    between atoms: _292  and  _293
REMARK  111  A    between atoms: _296  and  _298
REMARK  112  A    between atoms: _298  and  _299
REMARK  113  A    between atoms: _302  and  _304
REMARK  114  A    between atoms: _315  and  _318
REMARK  115  A    between atoms: _318  and  _319
REMARK  116  A    between atoms: _319  and  _320
REMARK  117  A    between atoms: _325  and  _328
REMARK  118  A    between atoms: _328  and  _329
REMARK  119  A    between atoms: _339  and  _340
REMARK  120  A    between atoms: _348  and  _350
REMARK  121  A    between atoms: _350  and  _351
REMARK  122  A    between atoms: _350  and  _353
REMARK  123  A    between atoms: _353  and  _354
REMARK  124  A    between atoms: _356  and  _358
REMARK  125  A    between atoms: _358  and  _359
REMARK  126  A    between atoms: _358  and  _361
REMARK  127  A    between atoms: _361  and  _362
REMARK  128  A    between atoms: _366  and  ZN_723
REMARK  129  A    between atoms: _367  and  _369
REMARK  130  A    between atoms: _369  and  _370
REMARK  131  A    between atoms: _369  and  _372
REMARK  132  A    between atoms: _372  and  _373
REMARK  133  A    between atoms: _375  and  _377
REMARK  134  A    between atoms: _377  and  _378
REMARK  135  A    between atoms: _377  and  _380
REMARK  136  A    between atoms: _380  and  _381
REMARK  137  A    between atoms: _386  and  _388
REMARK  138  A    between atoms: _388  and  _389
REMARK  139  A    between atoms: _388  and  _391
REMARK  140  A    between atoms: _391  and  _392
REMARK  141  A    between atoms: _395  and  _397
REMARK  142  A    between atoms: _397  and  _398
REMARK  143  A    between atoms: _397  and  _400
REMARK  144  A    between atoms: _400  and  _401
REMARK  145  A    between atoms: _401  and  _402
REMARK  146  A    between atoms: _405  and  _407
REMARK  147  A    between atoms: _407  and  _408
REMARK  148  A    between atoms: _411  and  _413
REMARK  149  A    between atoms: _413  and  _414
REMARK  150  A    between atoms: _413  and  _416
REMARK  151  A    between atoms: _416  and  _417
REMARK  152  A    between atoms: _420  and  _422
REMARK  153  A    between atoms: _422  and  _423
REMARK  154  A    between atoms: _422  and  _425
REMARK  155  A    between atoms: _425  and  _426
REMARK  156  A    between atoms: _426  and  _427
REMARK  157  A    between atoms: _429  and  _431
REMARK  158  A    between atoms: _431  and  _432
REMARK  159  A    between atoms: _431  and  _434
REMARK  160  A    between atoms: _434  and  _435
REMARK  161  A    between atoms: _440  and  _441
REMARK  162  A    between atoms: _444  and  _445
REMARK  163  A    between atoms: _450  and  _452
REMARK  164  A    between atoms: _452  and  _453
REMARK  165  A    between atoms: _452  and  _455
REMARK  166  A    between atoms: _455  and  _456
REMARK  167  A    between atoms: _459  and  _461
REMARK  168  A    between atoms: _461  and  _462
REMARK  169  A    between atoms: _461  and  _464
REMARK  170  A    between atoms: _464  and  _465
REMARK  171  A    between atoms: _470  and  _471
REMARK  172  A    between atoms: _473  and  _475
REMARK  173  A    between atoms: _475  and  _476
REMARK  174  A    between atoms: _475  and  _478
REMARK  175  A    between atoms: _478  and  _479
REMARK  176  A    between atoms: _484  and  _486
REMARK  177  A    between atoms: _486  and  _487
REMARK  178  A    between atoms: _486  and  _489
REMARK  179  A    between atoms: _489  and  _490
REMARK  180  A    between atoms: _492  and  _494
REMARK  181  A    between atoms: _494  and  _495
REMARK  182  A    between atoms: _494  and  _497
REMARK  183  A    between atoms: _497  and  _498
REMARK  184  A    between atoms: _501  and  _503
REMARK  185  A    between atoms: _503  and  _504
REMARK  186  A    between atoms: _503  and  _506
REMARK  187  A    between atoms: _506  and  _507
REMARK  188  A    between atoms: _510  and  _512
REMARK  189  A    between atoms: _512  and  _513
REMARK  190  A    between atoms: _512  and  _515
REMARK  191  A    between atoms: _515  and  _516
REMARK  192  A    between atoms: _519  and  _521
REMARK  193  A    between atoms: _521  and  _522
REMARK  194  A    between atoms: _521  and  _524
REMARK  195  A    between atoms: _524  and  _525
REMARK  196  A    between atoms: _528  and  _530
REMARK  197  A    between atoms: _530  and  _531
REMARK  198  A    between atoms: _530  and  _533
REMARK  199  A    between atoms: _533  and  _534
REMARK  200  A    between atoms: _534  and  _535
REMARK  201  A    between atoms: _535  and  _536
REMARK  202  A    between atoms: _545  and  _547
REMARK  203  A    between atoms: _547  and  _548
REMARK  204  A    between atoms: _547  and  _550
REMARK  205  A    between atoms: _550  and  _551
REMARK  206  A    between atoms: _557  and  _559
REMARK  207  A    between atoms: _559  and  _560
REMARK  208  A    between atoms: _559  and  _562
REMARK  209  A    between atoms: _562  and  _563
REMARK  210  A    between atoms: _563  and  _564
REMARK  211  A    between atoms: _564  and  _565
REMARK  212  A    between atoms: _574  and  _576
REMARK  213  A    between atoms: _576  and  _577
REMARK  214  A    between atoms: _576  and  _579
REMARK  215  A    between atoms: _579  and  _580
REMARK  216  A    between atoms: _582  and  _584
REMARK  217  A    between atoms: _584  and  _585
REMARK  218  A    between atoms: _584  and  _587
REMARK  219  A    between atoms: _587  and  _588
REMARK  220  A    between atoms: _591  and  _593
REMARK  221  A    between atoms: _593  and  _594
REMARK  222  A    between atoms: _593  and  _596
REMARK  223  A    between atoms: _596  and  _597
REMARK  224  A    between atoms: _601  and  _602
REMARK  225  A    between atoms: _607  and  _609
REMARK  226  A    between atoms: _609  and  _610
REMARK  227  A    between atoms: _609  and  _612
REMARK  228  A    between atoms: _612  and  _613
REMARK  229  A    between atoms: _618  and  _620
REMARK  230  A    between atoms: _620  and  _621
REMARK  231  A    between atoms: _620  and  _623
REMARK  232  A    between atoms: _623  and  _624
REMARK  233  A    between atoms: _627  and  _629
REMARK  234  A    between atoms: _629  and  _630
REMARK  235  A    between atoms: _629  and  _632
REMARK  236  A    between atoms: _632  and  _633
REMARK  237  A    between atoms: _639  and  _641
REMARK  238  A    between atoms: _641  and  _642
REMARK  239  A    between atoms: _641  and  _644
REMARK  240  A    between atoms: _644  and  _645
REMARK  241  A    between atoms: _650  and  _652
REMARK  242  A    between atoms: _652  and  _653
REMARK  243  A    between atoms: _652  and  _655
REMARK  244  A    between atoms: _655  and  _656
REMARK  245  A    between atoms: _658  and  _660
REMARK  246  A    between atoms: _660  and  _661
REMARK  247  A    between atoms: _664  and  _666
REMARK  248  A    between atoms: _666  and  _667
REMARK  249  A    between atoms: _666  and  _669
REMARK  250  A    between atoms: _669  and  _670
REMARK  251  A    between atoms: _675  and  _677
REMARK  252  A    between atoms: _677  and  _678
REMARK  253  A    between atoms: _677  and  _680
REMARK  254  A    between atoms: _680  and  _681
REMARK  255  A    between atoms: _684  and  _686
REMARK  256  A    between atoms: _686  and  _687
REMARK  257  A    between atoms: _686  and  _689
REMARK  258  A    between atoms: _689  and  _690
REMARK  259  A    between atoms: _690  and  _691
REMARK  260  A    between atoms: _693  and  _695
REMARK  261  A    between atoms: _695  and  _696
REMARK  262  A    between atoms: _695  and  _698
REMARK  263  A    between atoms: _698  and  _699
REMARK  264  A    between atoms: _704  and  _705
REMARK  265  A    between atoms: _708  and  _709
REMARK  266  A    between atoms: _714  and  _716
REMARK  267  A    between atoms: _716  and  _717
REMARK  268  A    between atoms: _716  and  _719
REMARK  269  A    between atoms: _719  and  _720
REMARK                            x       y       z     vdW  Elec       q    Type
REMARK                         _______ _______ _______ _____ _____    ______ ____
ROOT
ATOM      1  O   HOH     1      40.501  34.566  30.696  0.00  0.00    +0.000 OA
ENDROOT
TORSDOF 0
REMARK  Name = ../refined-set-2016/1hfs/1hfs_pocket.pdb
REMARK  269 active torsions:
REMARK  status: ('A' for Active; 'I' for Inactive)
REMARK    1  A    between atoms: _1  and  _3
REMARK    2  A    between atoms: _3  and  _4
REMARK    3  A    between atoms: _3  and  _6
REMARK    4  A    between atoms: _6  and  _7
REMARK    5  A    between atoms: _11  and  ZN_724
REMARK    6  A    between atoms: _12  and  _14
REMARK    7  A    between atoms: _14  and  _15
REMARK    8  A    between atoms: _14  and  _17
REMARK    9  A    between atoms: _17  and  _18
REMARK   10  A    between atoms: _18  and  _20
REMARK   11  A    between atoms: _20  and  ZN_724
REMARK   12  A    between atoms: _21  and  _23
REMARK   13  A    between atoms: _23  and  _24
REMARK   14  A    between atoms: _23  and  _26
REMARK   15  A    between atoms: _26  and  _27
REMARK   16  A    between atoms: _33  and  _35
REMARK   17  A    between atoms: _35  and  _36
REMARK   18  A    between atoms: _35  and  _38
REMARK   19  A    between atoms: _38  and  _39
REMARK   20  A    between atoms: _44  and  _45
REMARK   21  A    between atoms: _48  and  _49
REMARK   22  A    between atoms: _54  and  _56
REMARK   23  A    between atoms: _56  and  _57
REMARK   24  A    between atoms: _56  and  _59
REMARK   25  A    between atoms: _59  and  _60
REMARK   26  A    between atoms: _66  and  _68
REMARK   27  A    between atoms: _68  and  _69
REMARK   28  A    between atoms: _68  and  _71
REMARK   29  A    between atoms: _71  and  _72
REMARK   30  A    between atoms: _76  and  _77
REMARK   31  A    between atoms: _82  and  _84
REMARK   32  A    between atoms: _89  and  _92
REMARK   33  A    between atoms: _92  and  _93
REMARK   34  A    between atoms: _100  and  _103
REMARK   35  A    between atoms: _101  and  _106
REMARK   36  A    between atoms: _106  and  _108
REMARK   37  A    between atoms: _108  and  _109
REMARK   38  A    between atoms: _108  and  _111
REMARK   39  A    between atoms: _111  and  _112
REMARK   40  A    between atoms: _115  and  _117
REMARK   41  A    between atoms: _117  and  _118
REMARK   42  A    between atoms: _121  and  _123
REMARK   43  A    between atoms: _123  and  _124
REMARK   44  A    between atoms: _123  and  _126
REMARK   45  A    between atoms: _126  and  _127
REMARK   46  A    between atoms: _131  and  ZN_724
REMARK   47  A    between atoms: _132  and  _134
REMARK   48  A    between atoms: _134  and  _135
REMARK   49  A    between atoms: _138  and  _140
REMARK   50  A    between atoms: _140  and  _141
REMARK   51  A    between atoms: _140  and  _143
REMARK   52  A    between atoms: _143  and  _144
REMARK   53  A    between atoms: _149  and  _150
REMARK   54  A    between atoms: _152  and  _154
REMARK   55  A    between atoms: _154  and  _155
REMARK   56  A    between atoms: _158  and  _160
REMARK   57  A    between atoms: _160  and  _161
REMARK   58  A    between atoms: _160  and  _163
REMARK   59  A    between atoms: _163  and  _164
REMARK   60  A    between atoms: _167  and  _169
REMARK   61  A    between atoms: _169  and  _170
REMARK   62  A    between atoms: _172  and  _174
REMARK   63  A    between atoms: _174  and  _175
REMARK   64  A    between atoms: _174  and  _177
REMARK   65  A    between atoms: _177  and  _178
REMARK   66  A    between atoms: _181  and  _183
REMARK   67  A    between atoms: _183  and  _184
REMARK   68  A    between atoms: _183  and  _186
REMARK   69  A    between atoms: _186  and  _187
REMARK   70  A    between atoms: _188  and  ZN_724
REMARK   71  A    between atoms: _192  and  _194
REMARK   72  A    between atoms: _194  and  _195
REMARK   73  A    between atoms: _194  and  _197
REMARK   74  A    between atoms: _197  and  _198
REMARK   75  A    between atoms: _201  and  _203
REMARK   76  A    between atoms: _203  and  _204
REMARK   77  A    between atoms: _203  and  _206
REMARK   78  A    between atoms: _206  and  _207
REMARK   79  A    between atoms: _207  and  _208
REMARK   80  A    between atoms: _211  and  _213
REMARK   81  A    between atoms: _213  and  _214
REMARK   82  A    between atoms: _213  and  _216
REMARK   83  A    between atoms: _216  and  _217
REMARK   84  A    between atoms: _227  and  _229
REMARK   85  A    between atoms: _229  and  _230
REMARK   86  A    between atoms: _232  and  _234
REMARK   87  A    between atoms: _234  and  _235
REMARK   88  A    between atoms: _234  and  _237
REMARK   89  A    between atoms: _237  and  _238
REMARK   90  A    between atoms: _241  and  _243
REMARK   91  A    between atoms: _243  and  _244
REMARK   92  A    between atoms: _243  and  _246
REMARK   93  A    between atoms: _246  and  _247
REMARK   94  A    between atoms: _252  and  _254
REMARK   95  A    between atoms: _254  and  _255
REMARK   96  A    between atoms: _254  and  _257
REMARK   97  A    between atoms: _257  and  _258
REMARK   98  A    between atoms: _261  and  _263
REMARK   99  A    between atoms: _263  and  _264
REMARK  100  A    between atoms: _263  and  _266
REMARK  101  A    between atoms: _266  and  _267
REMARK  102  A    between atoms: _273  and  _275
REMARK  103  A    between atoms: _275  and  _276
REMARK  104  A    between atoms: _275  and  _278
REMARK  105  A    between atoms: _278  and  _279
REMARK  106  A    between atoms: _282  and  _284
REMARK  107  A    between atoms: _284  and  _285
REMARK  108  A    between atoms: _284  and  _287
REMARK  109  A    between atoms: _290  and  _292
REMARK  110  A    between atoms: _292  and  _293
REMARK  111  A    between atoms: _296  and  _298
REMARK  112  A    between atoms: _298  and  _299
REMARK  113  A    between atoms: _302  and  _304
REMARK  114  A    between atoms: _315  and  _318
REMARK  115  A    between atoms: _318  and  _319
REMARK  116  A    between atoms: _319  and  _320
REMARK  117  A    between atoms: _325  and  _328
REMARK  118  A    between atoms: _328  and  _329
REMARK  119  A    between atoms: _339  and  _340
REMARK  120  A    between atoms: _348  and  _350
REMARK  121  A    between atoms: _350  and  _351
REMARK  122  A    between atoms: _350  and  _353
REMARK  123  A    between atoms: _353  and  _354
REMARK  124  A    between atoms: _356  and  _358
REMARK  125  A    between atoms: _358  and  _359
REMARK  126  A    between atoms: _358  and  _361
REMARK  127  A    between atoms: _361  and  _362
REMARK  128  A    between atoms: _366  and  ZN_723
REMARK  129  A    between atoms: _367  and  _369
REMARK  130  A    between atoms: _369  and  _370
REMARK  131  A    between atoms: _369  and  _372
REMARK  132  A    between atoms: _372  and  _373
REMARK  133  A    between atoms: _375  and  _377
REMARK  134  A    between atoms: _377  and  _378
REMARK  135  A    between atoms: _377  and  _380
REMARK  136  A    between atoms: _380  and  _381
REMARK  137  A    between atoms: _386  and  _388
REMARK  138  A    between atoms: _388  and  _389
REMARK  139  A    between atoms: _388  and  _391
REMARK  140  A    between atoms: _391  and  _392
REMARK  141  A    between atoms: _395  and  _397
REMARK  142  A    between atoms: _397  and  _398
REMARK  143  A    between atoms: _397  and  _400
REMARK  144  A    between atoms: _400  and  _401
REMARK  145  A    between atoms: _401  and  _402
REMARK  146  A    between atoms: _405  and  _407
REMARK  147  A    between atoms: _407  and  _408
REMARK  148  A    between atoms: _411  and  _413
REMARK  149  A    between atoms: _413  and  _414
REMARK  150  A    between atoms: _413  and  _416
REMARK  151  A    between atoms: _416  and  _417
REMARK  152  A    between atoms: _420  and  _422
REMARK  153  A    between atoms: _422  and  _423
REMARK  154  A    between atoms: _422  and  _425
REMARK  155  A    between atoms: _425  and  _426
REMARK  156  A    between atoms: _426  and  _427
REMARK  157  A    between atoms: _429  and  _431
REMARK  158  A    between atoms: _431  and  _432
REMARK  159  A    between atoms: _431  and  _434
REMARK  160  A    between atoms: _434  and  _435
REMARK  161  A    between atoms: _440  and  _441
REMARK  162  A    between atoms: _444  and  _445
REMARK  163  A    between atoms: _450  and  _452
REMARK  164  A    between atoms: _452  and  _453
REMARK  165  A    between atoms: _452  and  _455
REMARK  166  A    between atoms: _455  and  _456
REMARK  167  A    between atoms: _459  and  _461
REMARK  168  A    between atoms: _461  and  _462
REMARK  169  A    between atoms: _461  and  _464
REMARK  170  A    between atoms: _464  and  _465
REMARK  171  A    between atoms: _470  and  _471
REMARK  172  A    between atoms: _473  and  _475
REMARK  173  A    between atoms: _475  and  _476
REMARK  174  A    between atoms: _475  and  _478
REMARK  175  A    between atoms: _478  and  _479
REMARK  176  A    between atoms: _484  and  _486
REMARK  177  A    between atoms: _486  and  _487
REMARK  178  A    between atoms: _486  and  _489
REMARK  179  A    between atoms: _489  and  _490
REMARK  180  A    between atoms: _492  and  _494
REMARK  181  A    between atoms: _494  and  _495
REMARK  182  A    between atoms: _494  and  _497
REMARK  183  A    between atoms: _497  and  _498
REMARK  184  A    between atoms: _501  and  _503
REMARK  185  A    between atoms: _503  and  _504
REMARK  186  A    between atoms: _503  and  _506
REMARK  187  A    between atoms: _506  and  _507
REMARK  188  A    between atoms: _510  and  _512
REMARK  189  A    between atoms: _512  and  _513
REMARK  190  A    between atoms: _512  and  _515
REMARK  191  A    between atoms: _515  and  _516
REMARK  192  A    between atoms: _519  and  _521
REMARK  193  A    between atoms: _521  and  _522
REMARK  194  A    between atoms: _521  and  _524
REMARK  195  A    between atoms: _524  and  _525
REMARK  196  A    between atoms: _528  and  _530
REMARK  197  A    between atoms: _530  and  _531
REMARK  198  A    between atoms: _530  and  _533
REMARK  199  A    between atoms: _533  and  _534
REMARK  200  A    between atoms: _534  and  _535
REMARK  201  A    between atoms: _535  and  _536
REMARK  202  A    between atoms: _545  and  _547
REMARK  203  A    between atoms: _547  and  _548
REMARK  204  A    between atoms: _547  and  _550
REMARK  205  A    between atoms: _550  and  _551
REMARK  206  A    between atoms: _557  and  _559
REMARK  207  A    between atoms: _559  and  _560
REMARK  208  A    between atoms: _559  and  _562
REMARK  209  A    between atoms: _562  and  _563
REMARK  210  A    between atoms: _563  and  _564
REMARK  211  A    between atoms: _564  and  _565
REMARK  212  A    between atoms: _574  and  _576
REMARK  213  A    between atoms: _576  and  _577
REMARK  214  A    between atoms: _576  and  _579
REMARK  215  A    between atoms: _579  and  _580
REMARK  216  A    between atoms: _582  and  _584
REMARK  217  A    between atoms: _584  and  _585
REMARK  218  A    between atoms: _584  and  _587
REMARK  219  A    between atoms: _587  and  _588
REMARK  220  A    between atoms: _591  and  _593
REMARK  221  A    between atoms: _593  and  _594
REMARK  222  A    between atoms: _593  and  _596
REMARK  223  A    between atoms: _596  and  _597
REMARK  224  A    between atoms: _601  and  _602
REMARK  225  A    between atoms: _607  and  _609
REMARK  226  A    between atoms: _609  and  _610
REMARK  227  A    between atoms: _609  and  _612
REMARK  228  A    between atoms: _612  and  _613
REMARK  229  A    between atoms: _618  and  _620
REMARK  230  A    between atoms: _620  and  _621
REMARK  231  A    between atoms: _620  and  _623
REMARK  232  A    between atoms: _623  and  _624
REMARK  233  A    between atoms: _627  and  _629
REMARK  234  A    between atoms: _629  and  _630
REMARK  235  A    between atoms: _629  and  _632
REMARK  236  A    between atoms: _632  and  _633
REMARK  237  A    between atoms: _639  and  _641
REMARK  238  A    between atoms: _641  and  _642
REMARK  239  A    between atoms: _641  and  _644
REMARK  240  A    between atoms: _644  and  _645
REMARK  241  A    between atoms: _650  and  _652
REMARK  242  A    between atoms: _652  and  _653
REMARK  243  A    between atoms: _652  and  _655
REMARK  244  A    between atoms: _655  and  _656
REMARK  245  A    between atoms: _658  and  _660
REMARK  246  A    between atoms: _660  and  _661
REMARK  247  A    between atoms: _664  and  _666
REMARK  248  A    between atoms: _666  and  _667
REMARK  249  A    between atoms: _666  and  _669
REMARK  250  A    between atoms: _669  and  _670
REMARK  251  A    between atoms: _675  and  _677
REMARK  252  A    between atoms: _677  and  _678
REMARK  253  A    between atoms: _677  and  _680
REMARK  254  A    between atoms: _680  and  _681
REMARK  255  A    between atoms: _684  and  _686
REMARK  256  A    between atoms: _686  and  _687
REMARK  257  A    between atoms: _686  and  _689
REMARK  258  A    between atoms: _689  and  _690
REMARK  259  A    between atoms: _690  and  _691
REMARK  260  A    between atoms: _693  and  _695
REMARK  261  A    between atoms: _695  and  _696
REMARK  262  A    between atoms: _695  and  _698
REMARK  263  A    between atoms: _698  and  _699
REMARK  264  A    between atoms: _704  and  _705
REMARK  265  A    between atoms: _708  and  _709
REMARK  266  A    between atoms: _714  and  _716
REMARK  267  A    between atoms: _716  and  _717
REMARK  268  A    between atoms: _716  and  _719
REMARK  269  A    between atoms: _719  and  _720
REMARK                            x       y       z     vdW  Elec       q    Type
REMARK                         _______ _______ _______ _____ _____    ______ ____
ROOT
ATOM      1  O   HOH     1      41.027  40.496  19.341  0.00  0.00    +0.000 OA
ENDROOT
TORSDOF 0
REMARK  Name = ../refined-set-2016/1hfs/1hfs_pocket.pdb
REMARK  269 active torsions:
REMARK  status: ('A' for Active; 'I' for Inactive)
REMARK    1  A    between atoms: _1  and  _3
REMARK    2  A    between atoms: _3  and  _4
REMARK    3  A    between atoms: _3  and  _6
REMARK    4  A    between atoms: _6  and  _7
REMARK    5  A    between atoms: _11  and  ZN_724
REMARK    6  A    between atoms: _12  and  _14
REMARK    7  A    between atoms: _14  and  _15
REMARK    8  A    between atoms: _14  and  _17
REMARK    9  A    between atoms: _17  and  _18
REMARK   10  A    between atoms: _18  and  _20
REMARK   11  A    between atoms: _20  and  ZN_724
REMARK   12  A    between atoms: _21  and  _23
REMARK   13  A    between atoms: _23  and  _24
REMARK   14  A    between atoms: _23  and  _26
REMARK   15  A    between atoms: _26  and  _27
REMARK   16  A    between atoms: _33  and  _35
REMARK   17  A    between atoms: _35  and  _36
REMARK   18  A    between atoms: _35  and  _38
REMARK   19  A    between atoms: _38  and  _39
REMARK   20  A    between atoms: _44  and  _45
REMARK   21  A    between atoms: _48  and  _49
REMARK   22  A    between atoms: _54  and  _56
REMARK   23  A    between atoms: _56  and  _57
REMARK   24  A    between atoms: _56  and  _59
REMARK   25  A    between atoms: _59  and  _60
REMARK   26  A    between atoms: _66  and  _68
REMARK   27  A    between atoms: _68  and  _69
REMARK   28  A    between atoms: _68  and  _71
REMARK   29  A    between atoms: _71  and  _72
REMARK   30  A    between atoms: _76  and  _77
REMARK   31  A    between atoms: _82  and  _84
REMARK   32  A    between atoms: _89  and  _92
REMARK   33  A    between atoms: _92  and  _93
REMARK   34  A    between atoms: _100  and  _103
REMARK   35  A    between atoms: _101  and  _106
REMARK   36  A    between atoms: _106  and  _108
REMARK   37  A    between atoms: _108  and  _109
REMARK   38  A    between atoms: _108  and  _111
REMARK   39  A    between atoms: _111  and  _112
REMARK   40  A    between atoms: _115  and  _117
REMARK   41  A    between atoms: _117  and  _118
REMARK   42  A    between atoms: _121  and  _123
REMARK   43  A    between atoms: _123  and  _124
REMARK   44  A    between atoms: _123  and  _126
REMARK   45  A    between atoms: _126  and  _127
REMARK   46  A    between atoms: _131  and  ZN_724
REMARK   47  A    between atoms: _132  and  _134
REMARK   48  A    between atoms: _134  and  _135
REMARK   49  A    between atoms: _138  and  _140
REMARK   50  A    between atoms: _140  and  _141
REMARK   51  A    between atoms: _140  and  _143
REMARK   52  A    between atoms: _143  and  _144
REMARK   53  A    between atoms: _149  and  _150
REMARK   54  A    between atoms: _152  and  _154
REMARK   55  A    between atoms: _154  and  _155
REMARK   56  A    between atoms: _158  and  _160
REMARK   57  A    between atoms: _160  and  _161
REMARK   58  A    between atoms: _160  and  _163
REMARK   59  A    between atoms: _163  and  _164
REMARK   60  A    between atoms: _167  and  _169
REMARK   61  A    between atoms: _169  and  _170
REMARK   62  A    between atoms: _172  and  _174
REMARK   63  A    between atoms: _174  and  _175
REMARK   64  A    between atoms: _174  and  _177
REMARK   65  A    between atoms: _177  and  _178
REMARK   66  A    between atoms: _181  and  _183
REMARK   67  A    between atoms: _183  and  _184
REMARK   68  A    between atoms: _183  and  _186
REMARK   69  A    between atoms: _186  and  _187
REMARK   70  A    between atoms: _188  and  ZN_724
REMARK   71  A    between atoms: _192  and  _194
REMARK   72  A    between atoms: _194  and  _195
REMARK   73  A    between atoms: _194  and  _197
REMARK   74  A    between atoms: _197  and  _198
REMARK   75  A    between atoms: _201  and  _203
REMARK   76  A    between atoms: _203  and  _204
REMARK   77  A    between atoms: _203  and  _206
REMARK   78  A    between atoms: _206  and  _207
REMARK   79  A    between atoms: _207  and  _208
REMARK   80  A    between atoms: _211  and  _213
REMARK   81  A    between atoms: _213  and  _214
REMARK   82  A    between atoms: _213  and  _216
REMARK   83  A    between atoms: _216  and  _217
REMARK   84  A    between atoms: _227  and  _229
REMARK   85  A    between atoms: _229  and  _230
REMARK   86  A    between atoms: _232  and  _234
REMARK   87  A    between atoms: _234  and  _235
REMARK   88  A    between atoms: _234  and  _237
REMARK   89  A    between atoms: _237  and  _238
REMARK   90  A    between atoms: _241  and  _243
REMARK   91  A    between atoms: _243  and  _244
REMARK   92  A    between atoms: _243  and  _246
REMARK   93  A    between atoms: _246  and  _247
REMARK   94  A    between atoms: _252  and  _254
REMARK   95  A    between atoms: _254  and  _255
REMARK   96  A    between atoms: _254  and  _257
REMARK   97  A    between atoms: _257  and  _258
REMARK   98  A    between atoms: _261  and  _263
REMARK   99  A    between atoms: _263  and  _264
REMARK  100  A    between atoms: _263  and  _266
REMARK  101  A    between atoms: _266  and  _267
REMARK  102  A    between atoms: _273  and  _275
REMARK  103  A    between atoms: _275  and  _276
REMARK  104  A    between atoms: _275  and  _278
REMARK  105  A    between atoms: _278  and  _279
REMARK  106  A    between atoms: _282  and  _284
REMARK  107  A    between atoms: _284  and  _285
REMARK  108  A    between atoms: _284  and  _287
REMARK  109  A    between atoms: _290  and  _292
REMARK  110  A    between atoms: _292  and  _293
REMARK  111  A    between atoms: _296  and  _298
REMARK  112  A    between atoms: _298  and  _299
REMARK  113  A    between atoms: _302  and  _304
REMARK  114  A    between atoms: _315  and  _318
REMARK  115  A    between atoms: _318  and  _319
REMARK  116  A    between atoms: _319  and  _320
REMARK  117  A    between atoms: _325  and  _328
REMARK  118  A    between atoms: _328  and  _329
REMARK  119  A    between atoms: _339  and  _340
REMARK  120  A    between atoms: _348  and  _350
REMARK  121  A    between atoms: _350  and  _351
REMARK  122  A    between atoms: _350  and  _353
REMARK  123  A    between atoms: _353  and  _354
REMARK  124  A    between atoms: _356  and  _358
REMARK  125  A    between atoms: _358  and  _359
REMARK  126  A    between atoms: _358  and  _361
REMARK  127  A    between atoms: _361  and  _362
REMARK  128  A    between atoms: _366  and  ZN_723
REMARK  129  A    between atoms: _367  and  _369
REMARK  130  A    between atoms: _369  and  _370
REMARK  131  A    between atoms: _369  and  _372
REMARK  132  A    between atoms: _372  and  _373
REMARK  133  A    between atoms: _375  and  _377
REMARK  134  A    between atoms: _377  and  _378
REMARK  135  A    between atoms: _377  and  _380
REMARK  136  A    between atoms: _380  and  _381
REMARK  137  A    between atoms: _386  and  _388
REMARK  138  A    between atoms: _388  and  _389
REMARK  139  A    between atoms: _388  and  _391
REMARK  140  A    between atoms: _391  and  _392
REMARK  141  A    between atoms: _395  and  _397
REMARK  142  A    between atoms: _397  and  _398
REMARK  143  A    between atoms: _397  and  _400
REMARK  144  A    between atoms: _400  and  _401
REMARK  145  A    between atoms: _401  and  _402
REMARK  146  A    between atoms: _405  and  _407
REMARK  147  A    between atoms: _407  and  _408
REMARK  148  A    between atoms: _411  and  _413
REMARK  149  A    between atoms: _413  and  _414
REMARK  150  A    between atoms: _413  and  _416
REMARK  151  A    between atoms: _416  and  _417
REMARK  152  A    between atoms: _420  and  _422
REMARK  153  A    between atoms: _422  and  _423
REMARK  154  A    between atoms: _422  and  _425
REMARK  155  A    between atoms: _425  and  _426
REMARK  156  A    between atoms: _426  and  _427
REMARK  157  A    between atoms: _429  and  _431
REMARK  158  A    between atoms: _431  and  _432
REMARK  159  A    between atoms: _431  and  _434
REMARK  160  A    between atoms: _434  and  _435
REMARK  161  A    between atoms: _440  and  _441
REMARK  162  A    between atoms: _444  and  _445
REMARK  163  A    between atoms: _450  and  _452
REMARK  164  A    between atoms: _452  and  _453
REMARK  165  A    between atoms: _452  and  _455
REMARK  166  A    between atoms: _455  and  _456
REMARK  167  A    between atoms: _459  and  _461
REMARK  168  A    between atoms: _461  and  _462
REMARK  169  A    between atoms: _461  and  _464
REMARK  170  A    between atoms: _464  and  _465
REMARK  171  A    between atoms: _470  and  _471
REMARK  172  A    between atoms: _473  and  _475
REMARK  173  A    between atoms: _475  and  _476
REMARK  174  A    between atoms: _475  and  _478
REMARK  175  A    between atoms: _478  and  _479
REMARK  176  A    between atoms: _484  and  _486
REMARK  177  A    between atoms: _486  and  _487
REMARK  178  A    between atoms: _486  and  _489
REMARK  179  A    between atoms: _489  and  _490
REMARK  180  A    between atoms: _492  and  _494
REMARK  181  A    between atoms: _494  and  _495
REMARK  182  A    between atoms: _494  and  _497
REMARK  183  A    between atoms: _497  and  _498
REMARK  184  A    between atoms: _501  and  _503
REMARK  185  A    between atoms: _503  and  _504
REMARK  186  A    between atoms: _503  and  _506
REMARK  187  A    between atoms: _506  and  _507
REMARK  188  A    between atoms: _510  and  _512
REMARK  189  A    between atoms: _512  and  _513
REMARK  190  A    between atoms: _512  and  _515
REMARK  191  A    between atoms: _515  and  _516
REMARK  192  A    between atoms: _519  and  _521
REMARK  193  A    between atoms: _521  and  _522
REMARK  194  A    between atoms: _521  and  _524
REMARK  195  A    between atoms: _524  and  _525
REMARK  196  A    between atoms: _528  and  _530
REMARK  197  A    between atoms: _530  and  _531
REMARK  198  A    between atoms: _530  and  _533
REMARK  199  A    between atoms: _533  and  _534
REMARK  200  A    between atoms: _534  and  _535
REMARK  201  A    between atoms: _535  and  _536
REMARK  202  A    between atoms: _545  and  _547
REMARK  203  A    between atoms: _547  and  _548
REMARK  204  A    between atoms: _547  and  _550
REMARK  205  A    between atoms: _550  and  _551
REMARK  206  A    between atoms: _557  and  _559
REMARK  207  A    between atoms: _559  and  _560
REMARK  208  A    between atoms: _559  and  _562
REMARK  209  A    between atoms: _562  and  _563
REMARK  210  A    between atoms: _563  and  _564
REMARK  211  A    between atoms: _564  and  _565
REMARK  212  A    between atoms: _574  and  _576
REMARK  213  A    between atoms: _576  and  _577
REMARK  214  A    between atoms: _576  and  _579
REMARK  215  A    between atoms: _579  and  _580
REMARK  216  A    between atoms: _582  and  _584
REMARK  217  A    between atoms: _584  and  _585
REMARK  218  A    between atoms: _584  and  _587
REMARK  219  A    between atoms: _587  and  _588
REMARK  220  A    between atoms: _591  and  _593
REMARK  221  A    between atoms: _593  and  _594
REMARK  222  A    between atoms: _593  and  _596
REMARK  223  A    between atoms: _596  and  _597
REMARK  224  A    between atoms: _601  and  _602
REMARK  225  A    between atoms: _607  and  _609
REMARK  226  A    between atoms: _609  and  _610
REMARK  227  A    between atoms: _609  and  _612
REMARK  228  A    between atoms: _612  and  _613
REMARK  229  A    between atoms: _618  and  _620
REMARK  230  A    between atoms: _620  and  _621
REMARK  231  A    between atoms: _620  and  _623
REMARK  232  A    between atoms: _623  and  _624
REMARK  233  A    between atoms: _627  and  _629
REMARK  234  A    between atoms: _629  and  _630
REMARK  235  A    between atoms: _629  and  _632
REMARK  236  A    between atoms: _632  and  _633
REMARK  237  A    between atoms: _639  and  _641
REMARK  238  A    between atoms: _641  and  _642
REMARK  239  A    between atoms: _641  and  _644
REMARK  240  A    between atoms: _644  and  _645
REMARK  241  A    between atoms: _650  and  _652
REMARK  242  A    between atoms: _652  and  _653
REMARK  243  A    between atoms: _652  and  _655
REMARK  244  A    between atoms: _655  and  _656
REMARK  245  A    between atoms: _658  and  _660
REMARK  246  A    between atoms: _660  and  _661
REMARK  247  A    between atoms: _664  and  _666
REMARK  248  A    between atoms: _666  and  _667
REMARK  249  A    between atoms: _666  and  _669
REMARK  250  A    between atoms: _669  and  _670
REMARK  251  A    between atoms: _675  and  _677
REMARK  252  A    between atoms: _677  and  _678
REMARK  253  A    between atoms: _677  and  _680
REMARK  254  A    between atoms: _680  and  _681
REMARK  255  A    between atoms: _684  and  _686
REMARK  256  A    between atoms: _686  and  _687
REMARK  257  A    between atoms: _686  and  _689
REMARK  258  A    between atoms: _689  and  _690
REMARK  259  A    between atoms: _690  and  _691
REMARK  260  A    between atoms: _693  and  _695
REMARK  261  A    between atoms: _695  and  _696
REMARK  262  A    between atoms: _695  and  _698
REMARK  263  A    between atoms: _698  and  _699
REMARK  264  A    between atoms: _704  and  _705
REMARK  265  A    between atoms: _708  and  _709
REMARK  266  A    between atoms: _714  and  _716
REMARK  267  A    between atoms: _716  and  _717
REMARK  268  A    between atoms: _716  and  _719
REMARK  269  A    between atoms: _719  and  _720
REMARK                            x       y       z     vdW  Elec       q    Type
REMARK                         _______ _______ _______ _____ _____    ______ ____
ROOT
ATOM      1  O   HOH     1      39.555  31.630  39.515  0.00  0.00    +0.000 OA
ENDROOT
TORSDOF 0
REMARK  Name = ../refined-set-2016/1hfs/1hfs_pocket.pdb
REMARK  269 active torsions:
REMARK  status: ('A' for Active; 'I' for Inactive)
REMARK    1  A    between atoms: _1  and  _3
REMARK    2  A    between atoms: _3  and  _4
REMARK    3  A    between atoms: _3  and  _6
REMARK    4  A    between atoms: _6  and  _7
REMARK    5  A    between atoms: _11  and  ZN_724
REMARK    6  A    between atoms: _12  and  _14
REMARK    7  A    between atoms: _14  and  _15
REMARK    8  A    between atoms: _14  and  _17
REMARK    9  A    between atoms: _17  and  _18
REMARK   10  A    between atoms: _18  and  _20
REMARK   11  A    between atoms: _20  and  ZN_724
REMARK   12  A    between atoms: _21  and  _23
REMARK   13  A    between atoms: _23  and  _24
REMARK   14  A    between atoms: _23  and  _26
REMARK   15  A    between atoms: _26  and  _27
REMARK   16  A    between atoms: _33  and  _35
REMARK   17  A    between atoms: _35  and  _36
REMARK   18  A    between atoms: _35  and  _38
REMARK   19  A    between atoms: _38  and  _39
REMARK   20  A    between atoms: _44  and  _45
REMARK   21  A    between atoms: _48  and  _49
REMARK   22  A    between atoms: _54  and  _56
REMARK   23  A    between atoms: _56  and  _57
REMARK   24  A    between atoms: _56  and  _59
REMARK   25  A    between atoms: _59  and  _60
REMARK   26  A    between atoms: _66  and  _68
REMARK   27  A    between atoms: _68  and  _69
REMARK   28  A    between atoms: _68  and  _71
REMARK   29  A    between atoms: _71  and  _72
REMARK   30  A    between atoms: _76  and  _77
REMARK   31  A    between atoms: _82  and  _84
REMARK   32  A    between atoms: _89  and  _92
REMARK   33  A    between atoms: _92  and  _93
REMARK   34  A    between atoms: _100  and  _103
REMARK   35  A    between atoms: _101  and  _106
REMARK   36  A    between atoms: _106  and  _108
REMARK   37  A    between atoms: _108  and  _109
REMARK   38  A    between atoms: _108  and  _111
REMARK   39  A    between atoms: _111  and  _112
REMARK   40  A    between atoms: _115  and  _117
REMARK   41  A    between atoms: _117  and  _118
REMARK   42  A    between atoms: _121  and  _123
REMARK   43  A    between atoms: _123  and  _124
REMARK   44  A    between atoms: _123  and  _126
REMARK   45  A    between atoms: _126  and  _127
REMARK   46  A    between atoms: _131  and  ZN_724
REMARK   47  A    between atoms: _132  and  _134
REMARK   48  A    between atoms: _134  and  _135
REMARK   49  A    between atoms: _138  and  _140
REMARK   50  A    between atoms: _140  and  _141
REMARK   51  A    between atoms: _140  and  _143
REMARK   52  A    between atoms: _143  and  _144
REMARK   53  A    between atoms: _149  and  _150
REMARK   54  A    between atoms: _152  and  _154
REMARK   55  A    between atoms: _154  and  _155
REMARK   56  A    between atoms: _158  and  _160
REMARK   57  A    between atoms: _160  and  _161
REMARK   58  A    between atoms: _160  and  _163
REMARK   59  A    between atoms: _163  and  _164
REMARK   60  A    between atoms: _167  and  _169
REMARK   61  A    between atoms: _169  and  _170
REMARK   62  A    between atoms: _172  and  _174
REMARK   63  A    between atoms: _174  and  _175
REMARK   64  A    between atoms: _174  and  _177
REMARK   65  A    between atoms: _177  and  _178
REMARK   66  A    between atoms: _181  and  _183
REMARK   67  A    between atoms: _183  and  _184
REMARK   68  A    between atoms: _183  and  _186
REMARK   69  A    between atoms: _186  and  _187
REMARK   70  A    between atoms: _188  and  ZN_724
REMARK   71  A    between atoms: _192  and  _194
REMARK   72  A    between atoms: _194  and  _195
REMARK   73  A    between atoms: _194  and  _197
REMARK   74  A    between atoms: _197  and  _198
REMARK   75  A    between atoms: _201  and  _203
REMARK   76  A    between atoms: _203  and  _204
REMARK   77  A    between atoms: _203  and  _206
REMARK   78  A    between atoms: _206  and  _207
REMARK   79  A    between atoms: _207  and  _208
REMARK   80  A    between atoms: _211  and  _213
REMARK   81  A    between atoms: _213  and  _214
REMARK   82  A    between atoms: _213  and  _216
REMARK   83  A    between atoms: _216  and  _217
REMARK   84  A    between atoms: _227  and  _229
REMARK   85  A    between atoms: _229  and  _230
REMARK   86  A    between atoms: _232  and  _234
REMARK   87  A    between atoms: _234  and  _235
REMARK   88  A    between atoms: _234  and  _237
REMARK   89  A    between atoms: _237  and  _238
REMARK   90  A    between atoms: _241  and  _243
REMARK   91  A    between atoms: _243  and  _244
REMARK   92  A    between atoms: _243  and  _246
REMARK   93  A    between atoms: _246  and  _247
REMARK   94  A    between atoms: _252  and  _254
REMARK   95  A    between atoms: _254  and  _255
REMARK   96  A    between atoms: _254  and  _257
REMARK   97  A    between atoms: _257  and  _258
REMARK   98  A    between atoms: _261  and  _263
REMARK   99  A    between atoms: _263  and  _264
REMARK  100  A    between atoms: _263  and  _266
REMARK  101  A    between atoms: _266  and  _267
REMARK  102  A    between atoms: _273  and  _275
REMARK  103  A    between atoms: _275  and  _276
REMARK  104  A    between atoms: _275  and  _278
REMARK  105  A    between atoms: _278  and  _279
REMARK  106  A    between atoms: _282  and  _284
REMARK  107  A    between atoms: _284  and  _285
REMARK  108  A    between atoms: _284  and  _287
REMARK  109  A    between atoms: _290  and  _292
REMARK  110  A    between atoms: _292  and  _293
REMARK  111  A    between atoms: _296  and  _298
REMARK  112  A    between atoms: _298  and  _299
REMARK  113  A    between atoms: _302  and  _304
REMARK  114  A    between atoms: _315  and  _318
REMARK  115  A    between atoms: _318  and  _319
REMARK  116  A    between atoms: _319  and  _320
REMARK  117  A    between atoms: _325  and  _328
REMARK  118  A    between atoms: _328  and  _329
REMARK  119  A    between atoms: _339  and  _340
REMARK  120  A    between atoms: _348  and  _350
REMARK  121  A    between atoms: _350  and  _351
REMARK  122  A    between atoms: _350  and  _353
REMARK  123  A    between atoms: _353  and  _354
REMARK  124  A    between atoms: _356  and  _358
REMARK  125  A    between atoms: _358  and  _359
REMARK  126  A    between atoms: _358  and  _361
REMARK  127  A    between atoms: _361  and  _362
REMARK  128  A    between atoms: _366  and  ZN_723
REMARK  129  A    between atoms: _367  and  _369
REMARK  130  A    between atoms: _369  and  _370
REMARK  131  A    between atoms: _369  and  _372
REMARK  132  A    between atoms: _372  and  _373
REMARK  133  A    between atoms: _375  and  _377
REMARK  134  A    between atoms: _377  and  _378
REMARK  135  A    between atoms: _377  and  _380
REMARK  136  A    between atoms: _380  and  _381
REMARK  137  A    between atoms: _386  and  _388
REMARK  138  A    between atoms: _388  and  _389
REMARK  139  A    between atoms: _388  and  _391
REMARK  140  A    between atoms: _391  and  _392
REMARK  141  A    between atoms: _395  and  _397
REMARK  142  A    between atoms: _397  and  _398
REMARK  143  A    between atoms: _397  and  _400
REMARK  144  A    between atoms: _400  and  _401
REMARK  145  A    between atoms: _401  and  _402
REMARK  146  A    between atoms: _405  and  _407
REMARK  147  A    between atoms: _407  and  _408
REMARK  148  A    between atoms: _411  and  _413
REMARK  149  A    between atoms: _413  and  _414
REMARK  150  A    between atoms: _413  and  _416
REMARK  151  A    between atoms: _416  and  _417
REMARK  152  A    between atoms: _420  and  _422
REMARK  153  A    between atoms: _422  and  _423
REMARK  154  A    between atoms: _422  and  _425
REMARK  155  A    between atoms: _425  and  _426
REMARK  156  A    between atoms: _426  and  _427
REMARK  157  A    between atoms: _429  and  _431
REMARK  158  A    between atoms: _431  and  _432
REMARK  159  A    between atoms: _431  and  _434
REMARK  160  A    between atoms: _434  and  _435
REMARK  161  A    between atoms: _440  and  _441
REMARK  162  A    between atoms: _444  and  _445
REMARK  163  A    between atoms: _450  and  _452
REMARK  164  A    between atoms: _452  and  _453
REMARK  165  A    between atoms: _452  and  _455
REMARK  166  A    between atoms: _455  and  _456
REMARK  167  A    between atoms: _459  and  _461
REMARK  168  A    between atoms: _461  and  _462
REMARK  169  A    between atoms: _461  and  _464
REMARK  170  A    between atoms: _464  and  _465
REMARK  171  A    between atoms: _470  and  _471
REMARK  172  A    between atoms: _473  and  _475
REMARK  173  A    between atoms: _475  and  _476
REMARK  174  A    between atoms: _475  and  _478
REMARK  175  A    between atoms: _478  and  _479
REMARK  176  A    between atoms: _484  and  _486
REMARK  177  A    between atoms: _486  and  _487
REMARK  178  A    between atoms: _486  and  _489
REMARK  179  A    between atoms: _489  and  _490
REMARK  180  A    between atoms: _492  and  _494
REMARK  181  A    between atoms: _494  and  _495
REMARK  182  A    between atoms: _494  and  _497
REMARK  183  A    between atoms: _497  and  _498
REMARK  184  A    between atoms: _501  and  _503
REMARK  185  A    between atoms: _503  and  _504
REMARK  186  A    between atoms: _503  and  _506
REMARK  187  A    between atoms: _506  and  _507
REMARK  188  A    between atoms: _510  and  _512
REMARK  189  A    between atoms: _512  and  _513
REMARK  190  A    between atoms: _512  and  _515
REMARK  191  A    between atoms: _515  and  _516
REMARK  192  A    between atoms: _519  and  _521
REMARK  193  A    between atoms: _521  and  _522
REMARK  194  A    between atoms: _521  and  _524
REMARK  195  A    between atoms: _524  and  _525
REMARK  196  A    between atoms: _528  and  _530
REMARK  197  A    between atoms: _530  and  _531
REMARK  198  A    between atoms: _530  and  _533
REMARK  199  A    between atoms: _533  and  _534
REMARK  200  A    between atoms: _534  and  _535
REMARK  201  A    between atoms: _535  and  _536
REMARK  202  A    between atoms: _545  and  _547
REMARK  203  A    between atoms: _547  and  _548
REMARK  204  A    between atoms: _547  and  _550
REMARK  205  A    between atoms: _550  and  _551
REMARK  206  A    between atoms: _557  and  _559
REMARK  207  A    between atoms: _559  and  _560
REMARK  208  A    between atoms: _559  and  _562
REMARK  209  A    between atoms: _562  and  _563
REMARK  210  A    between atoms: _563  and  _564
REMARK  211  A    between atoms: _564  and  _565
REMARK  212  A    between atoms: _574  and  _576
REMARK  213  A    between atoms: _576  and  _577
REMARK  214  A    between atoms: _576  and  _579
REMARK  215  A    between atoms: _579  and  _580
REMARK  216  A    between atoms: _582  and  _584
REMARK  217  A    between atoms: _584  and  _585
REMARK  218  A    between atoms: _584  and  _587
REMARK  219  A    between atoms: _587  and  _588
REMARK  220  A    between atoms: _591  and  _593
REMARK  221  A    between atoms: _593  and  _594
REMARK  222  A    between atoms: _593  and  _596
REMARK  223  A    between atoms: _596  and  _597
REMARK  224  A    between atoms: _601  and  _602
REMARK  225  A    between atoms: _607  and  _609
REMARK  226  A    between atoms: _609  and  _610
REMARK  227  A    between atoms: _609  and  _612
REMARK  228  A    between atoms: _612  and  _613
REMARK  229  A    between atoms: _618  and  _620
REMARK  230  A    between atoms: _620  and  _621
REMARK  231  A    between atoms: _620  and  _623
REMARK  232  A    between atoms: _623  and  _624
REMARK  233  A    between atoms: _627  and  _629
REMARK  234  A    between atoms: _629  and  _630
REMARK  235  A    between atoms: _629  and  _632
REMARK  236  A    between atoms: _632  and  _633
REMARK  237  A    between atoms: _639  and  _641
REMARK  238  A    between atoms: _641  and  _642
REMARK  239  A    between atoms: _641  and  _644
REMARK  240  A    between atoms: _644  and  _645
REMARK  241  A    between atoms: _650  and  _652
REMARK  242  A    between atoms: _652  and  _653
REMARK  243  A    between atoms: _652  and  _655
REMARK  244  A    between atoms: _655  and  _656
REMARK  245  A    between atoms: _658  and  _660
REMARK  246  A    between atoms: _660  and  _661
REMARK  247  A    between atoms: _664  and  _666
REMARK  248  A    between atoms: _666  and  _667
REMARK  249  A    between atoms: _666  and  _669
REMARK  250  A    between atoms: _669  and  _670
REMARK  251  A    between atoms: _675  and  _677
REMARK  252  A    between atoms: _677  and  _678
REMARK  253  A    between atoms: _677  and  _680
REMARK  254  A    between atoms: _680  and  _681
REMARK  255  A    between atoms: _684  and  _686
REMARK  256  A    between atoms: _686  and  _687
REMARK  257  A    between atoms: _686  and  _689
REMARK  258  A    between atoms: _689  and  _690
REMARK  259  A    between atoms: _690  and  _691
REMARK  260  A    between atoms: _693  and  _695
REMARK  261  A    between atoms: _695  and  _696
REMARK  262  A    between atoms: _695  and  _698
REMARK  263  A    between atoms: _698  and  _699
REMARK  264  A    between atoms: _704  and  _705
REMARK  265  A    between atoms: _708  and  _709
REMARK  266  A    between atoms: _714  and  _716
REMARK  267  A    between atoms: _716  and  _717
REMARK  268  A    between atoms: _716  and  _719
REMARK  269  A    between atoms: _719  and  _720
REMARK                            x       y       z     vdW  Elec       q    Type
REMARK                         _______ _______ _______ _____ _____    ______ ____
ROOT
ATOM      1  O   HOH     1      42.099  38.662  23.154  0.00  0.00    +0.000 OA
ENDROOT
TORSDOF 0
REMARK  Name = ../refined-set-2016/1hfs/1hfs_pocket.pdb
REMARK  269 active torsions:
REMARK  status: ('A' for Active; 'I' for Inactive)
REMARK    1  A    between atoms: _1  and  _3
REMARK    2  A    between atoms: _3  and  _4
REMARK    3  A    between atoms: _3  and  _6
REMARK    4  A    between atoms: _6  and  _7
REMARK    5  A    between atoms: _11  and  ZN_724
REMARK    6  A    between atoms: _12  and  _14
REMARK    7  A    between atoms: _14  and  _15
REMARK    8  A    between atoms: _14  and  _17
REMARK    9  A    between atoms: _17  and  _18
REMARK   10  A    between atoms: _18  and  _20
REMARK   11  A    between atoms: _20  and  ZN_724
REMARK   12  A    between atoms: _21  and  _23
REMARK   13  A    between atoms: _23  and  _24
REMARK   14  A    between atoms: _23  and  _26
REMARK   15  A    between atoms: _26  and  _27
REMARK   16  A    between atoms: _33  and  _35
REMARK   17  A    between atoms: _35  and  _36
REMARK   18  A    between atoms: _35  and  _38
REMARK   19  A    between atoms: _38  and  _39
REMARK   20  A    between atoms: _44  and  _45
REMARK   21  A    between atoms: _48  and  _49
REMARK   22  A    between atoms: _54  and  _56
REMARK   23  A    between atoms: _56  and  _57
REMARK   24  A    between atoms: _56  and  _59
REMARK   25  A    between atoms: _59  and  _60
REMARK   26  A    between atoms: _66  and  _68
REMARK   27  A    between atoms: _68  and  _69
REMARK   28  A    between atoms: _68  and  _71
REMARK   29  A    between atoms: _71  and  _72
REMARK   30  A    between atoms: _76  and  _77
REMARK   31  A    between atoms: _82  and  _84
REMARK   32  A    between atoms: _89  and  _92
REMARK   33  A    between atoms: _92  and  _93
REMARK   34  A    between atoms: _100  and  _103
REMARK   35  A    between atoms: _101  and  _106
REMARK   36  A    between atoms: _106  and  _108
REMARK   37  A    between atoms: _108  and  _109
REMARK   38  A    between atoms: _108  and  _111
REMARK   39  A    between atoms: _111  and  _112
REMARK   40  A    between atoms: _115  and  _117
REMARK   41  A    between atoms: _117  and  _118
REMARK   42  A    between atoms: _121  and  _123
REMARK   43  A    between atoms: _123  and  _124
REMARK   44  A    between atoms: _123  and  _126
REMARK   45  A    between atoms: _126  and  _127
REMARK   46  A    between atoms: _131  and  ZN_724
REMARK   47  A    between atoms: _132  and  _134
REMARK   48  A    between atoms: _134  and  _135
REMARK   49  A    between atoms: _138  and  _140
REMARK   50  A    between atoms: _140  and  _141
REMARK   51  A    between atoms: _140  and  _143
REMARK   52  A    between atoms: _143  and  _144
REMARK   53  A    between atoms: _149  and  _150
REMARK   54  A    between atoms: _152  and  _154
REMARK   55  A    between atoms: _154  and  _155
REMARK   56  A    between atoms: _158  and  _160
REMARK   57  A    between atoms: _160  and  _161
REMARK   58  A    between atoms: _160  and  _163
REMARK   59  A    between atoms: _163  and  _164
REMARK   60  A    between atoms: _167  and  _169
REMARK   61  A    between atoms: _169  and  _170
REMARK   62  A    between atoms: _172  and  _174
REMARK   63  A    between atoms: _174  and  _175
REMARK   64  A    between atoms: _174  and  _177
REMARK   65  A    between atoms: _177  and  _178
REMARK   66  A    between atoms: _181  and  _183
REMARK   67  A    between atoms: _183  and  _184
REMARK   68  A    between atoms: _183  and  _186
REMARK   69  A    between atoms: _186  and  _187
REMARK   70  A    between atoms: _188  and  ZN_724
REMARK   71  A    between atoms: _192  and  _194
REMARK   72  A    between atoms: _194  and  _195
REMARK   73  A    between atoms: _194  and  _197
REMARK   74  A    between atoms: _197  and  _198
REMARK   75  A    between atoms: _201  and  _203
REMARK   76  A    between atoms: _203  and  _204
REMARK   77  A    between atoms: _203  and  _206
REMARK   78  A    between atoms: _206  and  _207
REMARK   79  A    between atoms: _207  and  _208
REMARK   80  A    between atoms: _211  and  _213
REMARK   81  A    between atoms: _213  and  _214
REMARK   82  A    between atoms: _213  and  _216
REMARK   83  A    between atoms: _216  and  _217
REMARK   84  A    between atoms: _227  and  _229
REMARK   85  A    between atoms: _229  and  _230
REMARK   86  A    between atoms: _232  and  _234
REMARK   87  A    between atoms: _234  and  _235
REMARK   88  A    between atoms: _234  and  _237
REMARK   89  A    between atoms: _237  and  _238
REMARK   90  A    between atoms: _241  and  _243
REMARK   91  A    between atoms: _243  and  _244
REMARK   92  A    between atoms: _243  and  _246
REMARK   93  A    between atoms: _246  and  _247
REMARK   94  A    between atoms: _252  and  _254
REMARK   95  A    between atoms: _254  and  _255
REMARK   96  A    between atoms: _254  and  _257
REMARK   97  A    between atoms: _257  and  _258
REMARK   98  A    between atoms: _261  and  _263
REMARK   99  A    between atoms: _263  and  _264
REMARK  100  A    between atoms: _263  and  _266
REMARK  101  A    between atoms: _266  and  _267
REMARK  102  A    between atoms: _273  and  _275
REMARK  103  A    between atoms: _275  and  _276
REMARK  104  A    between atoms: _275  and  _278
REMARK  105  A    between atoms: _278  and  _279
REMARK  106  A    between atoms: _282  and  _284
REMARK  107  A    between atoms: _284  and  _285
REMARK  108  A    between atoms: _284  and  _287
REMARK  109  A    between atoms: _290  and  _292
REMARK  110  A    between atoms: _292  and  _293
REMARK  111  A    between atoms: _296  and  _298
REMARK  112  A    between atoms: _298  and  _299
REMARK  113  A    between atoms: _302  and  _304
REMARK  114  A    between atoms: _315  and  _318
REMARK  115  A    between atoms: _318  and  _319
REMARK  116  A    between atoms: _319  and  _320
REMARK  117  A    between atoms: _325  and  _328
REMARK  118  A    between atoms: _328  and  _329
REMARK  119  A    between atoms: _339  and  _340
REMARK  120  A    between atoms: _348  and  _350
REMARK  121  A    between atoms: _350  and  _351
REMARK  122  A    between atoms: _350  and  _353
REMARK  123  A    between atoms: _353  and  _354
REMARK  124  A    between atoms: _356  and  _358
REMARK  125  A    between atoms: _358  and  _359
REMARK  126  A    between atoms: _358  and  _361
REMARK  127  A    between atoms: _361  and  _362
REMARK  128  A    between atoms: _366  and  ZN_723
REMARK  129  A    between atoms: _367  and  _369
REMARK  130  A    between atoms: _369  and  _370
REMARK  131  A    between atoms: _369  and  _372
REMARK  132  A    between atoms: _372  and  _373
REMARK  133  A    between atoms: _375  and  _377
REMARK  134  A    between atoms: _377  and  _378
REMARK  135  A    between atoms: _377  and  _380
REMARK  136  A    between atoms: _380  and  _381
REMARK  137  A    between atoms: _386  and  _388
REMARK  138  A    between atoms: _388  and  _389
REMARK  139  A    between atoms: _388  and  _391
REMARK  140  A    between atoms: _391  and  _392
REMARK  141  A    between atoms: _395  and  _397
REMARK  142  A    between atoms: _397  and  _398
REMARK  143  A    between atoms: _397  and  _400
REMARK  144  A    between atoms: _400  and  _401
REMARK  145  A    between atoms: _401  and  _402
REMARK  146  A    between atoms: _405  and  _407
REMARK  147  A    between atoms: _407  and  _408
REMARK  148  A    between atoms: _411  and  _413
REMARK  149  A    between atoms: _413  and  _414
REMARK  150  A    between atoms: _413  and  _416
REMARK  151  A    between atoms: _416  and  _417
REMARK  152  A    between atoms: _420  and  _422
REMARK  153  A    between atoms: _422  and  _423
REMARK  154  A    between atoms: _422  and  _425
REMARK  155  A    between atoms: _425  and  _426
REMARK  156  A    between atoms: _426  and  _427
REMARK  157  A    between atoms: _429  and  _431
REMARK  158  A    between atoms: _431  and  _432
REMARK  159  A    between atoms: _431  and  _434
REMARK  160  A    between atoms: _434  and  _435
REMARK  161  A    between atoms: _440  and  _441
REMARK  162  A    between atoms: _444  and  _445
REMARK  163  A    between atoms: _450  and  _452
REMARK  164  A    between atoms: _452  and  _453
REMARK  165  A    between atoms: _452  and  _455
REMARK  166  A    between atoms: _455  and  _456
REMARK  167  A    between atoms: _459  and  _461
REMARK  168  A    between atoms: _461  and  _462
REMARK  169  A    between atoms: _461  and  _464
REMARK  170  A    between atoms: _464  and  _465
REMARK  171  A    between atoms: _470  and  _471
REMARK  172  A    between atoms: _473  and  _475
REMARK  173  A    between atoms: _475  and  _476
REMARK  174  A    between atoms: _475  and  _478
REMARK  175  A    between atoms: _478  and  _479
REMARK  176  A    between atoms: _484  and  _486
REMARK  177  A    between atoms: _486  and  _487
REMARK  178  A    between atoms: _486  and  _489
REMARK  179  A    between atoms: _489  and  _490
REMARK  180  A    between atoms: _492  and  _494
REMARK  181  A    between atoms: _494  and  _495
REMARK  182  A    between atoms: _494  and  _497
REMARK  183  A    between atoms: _497  and  _498
REMARK  184  A    between atoms: _501  and  _503
REMARK  185  A    between atoms: _503  and  _504
REMARK  186  A    between atoms: _503  and  _506
REMARK  187  A    between atoms: _506  and  _507
REMARK  188  A    between atoms: _510  and  _512
REMARK  189  A    between atoms: _512  and  _513
REMARK  190  A    between atoms: _512  and  _515
REMARK  191  A    between atoms: _515  and  _516
REMARK  192  A    between atoms: _519  and  _521
REMARK  193  A    between atoms: _521  and  _522
REMARK  194  A    between atoms: _521  and  _524
REMARK  195  A    between atoms: _524  and  _525
REMARK  196  A    between atoms: _528  and  _530
REMARK  197  A    between atoms: _530  and  _531
REMARK  198  A    between atoms: _530  and  _533
REMARK  199  A    between atoms: _533  and  _534
REMARK  200  A    between atoms: _534  and  _535
REMARK  201  A    between atoms: _535  and  _536
REMARK  202  A    between atoms: _545  and  _547
REMARK  203  A    between atoms: _547  and  _548
REMARK  204  A    between atoms: _547  and  _550
REMARK  205  A    between atoms: _550  and  _551
REMARK  206  A    between atoms: _557  and  _559
REMARK  207  A    between atoms: _559  and  _560
REMARK  208  A    between atoms: _559  and  _562
REMARK  209  A    between atoms: _562  and  _563
REMARK  210  A    between atoms: _563  and  _564
REMARK  211  A    between atoms: _564  and  _565
REMARK  212  A    between atoms: _574  and  _576
REMARK  213  A    between atoms: _576  and  _577
REMARK  214  A    between atoms: _576  and  _579
REMARK  215  A    between atoms: _579  and  _580
REMARK  216  A    between atoms: _582  and  _584
REMARK  217  A    between atoms: _584  and  _585
REMARK  218  A    between atoms: _584  and  _587
REMARK  219  A    between atoms: _587  and  _588
REMARK  220  A    between atoms: _591  and  _593
REMARK  221  A    between atoms: _593  and  _594
REMARK  222  A    between atoms: _593  and  _596
REMARK  223  A    between atoms: _596  and  _597
REMARK  224  A    between atoms: _601  and  _602
REMARK  225  A    between atoms: _607  and  _609
REMARK  226  A    between atoms: _609  and  _610
REMARK  227  A    between atoms: _609  and  _612
REMARK  228  A    between atoms: _612  and  _613
REMARK  229  A    between atoms: _618  and  _620
REMARK  230  A    between atoms: _620  and  _621
REMARK  231  A    between atoms: _620  and  _623
REMARK  232  A    between atoms: _623  and  _624
REMARK  233  A    between atoms: _627  and  _629
REMARK  234  A    between atoms: _629  and  _630
REMARK  235  A    between atoms: _629  and  _632
REMARK  236  A    between atoms: _632  and  _633
REMARK  237  A    between atoms: _639  and  _641
REMARK  238  A    between atoms: _641  and  _642
REMARK  239  A    between atoms: _641  and  _644
REMARK  240  A    between atoms: _644  and  _645
REMARK  241  A    between atoms: _650  and  _652
REMARK  242  A    between atoms: _652  and  _653
REMARK  243  A    between atoms: _652  and  _655
REMARK  244  A    between atoms: _655  and  _656
REMARK  245  A    between atoms: _658  and  _660
REMARK  246  A    between atoms: _660  and  _661
REMARK  247  A    between atoms: _664  and  _666
REMARK  248  A    between atoms: _666  and  _667
REMARK  249  A    between atoms: _666  and  _669
REMARK  250  A    between atoms: _669  and  _670
REMARK  251  A    between atoms: _675  and  _677
REMARK  252  A    between atoms: _677  and  _678
REMARK  253  A    between atoms: _677  and  _680
REMARK  254  A    between atoms: _680  and  _681
REMARK  255  A    between atoms: _684  and  _686
REMARK  256  A    between atoms: _686  and  _687
REMARK  257  A    between atoms: _686  and  _689
REMARK  258  A    between atoms: _689  and  _690
REMARK  259  A    between atoms: _690  and  _691
REMARK  260  A    between atoms: _693  and  _695
REMARK  261  A    between atoms: _695  and  _696
REMARK  262  A    between atoms: _695  and  _698
REMARK  263  A    between atoms: _698  and  _699
REMARK  264  A    between atoms: _704  and  _705
REMARK  265  A    between atoms: _708  and  _709
REMARK  266  A    between atoms: _714  and  _716
REMARK  267  A    between atoms: _716  and  _717
REMARK  268  A    between atoms: _716  and  _719
REMARK  269  A    between atoms: _719  and  _720
REMARK                            x       y       z     vdW  Elec       q    Type
REMARK                         _______ _______ _______ _____ _____    ______ ____
ROOT
ATOM      1  O   HOH     1      41.360  28.353  16.871  0.00  0.00    +0.000 OA
ENDROOT
TORSDOF 0
REMARK  Name = ../refined-set-2016/1hfs/1hfs_pocket.pdb
REMARK  269 active torsions:
REMARK  status: ('A' for Active; 'I' for Inactive)
REMARK    1  A    between atoms: _1  and  _3
REMARK    2  A    between atoms: _3  and  _4
REMARK    3  A    between atoms: _3  and  _6
REMARK    4  A    between atoms: _6  and  _7
REMARK    5  A    between atoms: _11  and  ZN_724
REMARK    6  A    between atoms: _12  and  _14
REMARK    7  A    between atoms: _14  and  _15
REMARK    8  A    between atoms: _14  and  _17
REMARK    9  A    between atoms: _17  and  _18
REMARK   10  A    between atoms: _18  and  _20
REMARK   11  A    between atoms: _20  and  ZN_724
REMARK   12  A    between atoms: _21  and  _23
REMARK   13  A    between atoms: _23  and  _24
REMARK   14  A    between atoms: _23  and  _26
REMARK   15  A    between atoms: _26  and  _27
REMARK   16  A    between atoms: _33  and  _35
REMARK   17  A    between atoms: _35  and  _36
REMARK   18  A    between atoms: _35  and  _38
REMARK   19  A    between atoms: _38  and  _39
REMARK   20  A    between atoms: _44  and  _45
REMARK   21  A    between atoms: _48  and  _49
REMARK   22  A    between atoms: _54  and  _56
REMARK   23  A    between atoms: _56  and  _57
REMARK   24  A    between atoms: _56  and  _59
REMARK   25  A    between atoms: _59  and  _60
REMARK   26  A    between atoms: _66  and  _68
REMARK   27  A    between atoms: _68  and  _69
REMARK   28  A    between atoms: _68  and  _71
REMARK   29  A    between atoms: _71  and  _72
REMARK   30  A    between atoms: _76  and  _77
REMARK   31  A    between atoms: _82  and  _84
REMARK   32  A    between atoms: _89  and  _92
REMARK   33  A    between atoms: _92  and  _93
REMARK   34  A    between atoms: _100  and  _103
REMARK   35  A    between atoms: _101  and  _106
REMARK   36  A    between atoms: _106  and  _108
REMARK   37  A    between atoms: _108  and  _109
REMARK   38  A    between atoms: _108  and  _111
REMARK   39  A    between atoms: _111  and  _112
REMARK   40  A    between atoms: _115  and  _117
REMARK   41  A    between atoms: _117  and  _118
REMARK   42  A    between atoms: _121  and  _123
REMARK   43  A    between atoms: _123  and  _124
REMARK   44  A    between atoms: _123  and  _126
REMARK   45  A    between atoms: _126  and  _127
REMARK   46  A    between atoms: _131  and  ZN_724
REMARK   47  A    between atoms: _132  and  _134
REMARK   48  A    between atoms: _134  and  _135
REMARK   49  A    between atoms: _138  and  _140
REMARK   50  A    between atoms: _140  and  _141
REMARK   51  A    between atoms: _140  and  _143
REMARK   52  A    between atoms: _143  and  _144
REMARK   53  A    between atoms: _149  and  _150
REMARK   54  A    between atoms: _152  and  _154
REMARK   55  A    between atoms: _154  and  _155
REMARK   56  A    between atoms: _158  and  _160
REMARK   57  A    between atoms: _160  and  _161
REMARK   58  A    between atoms: _160  and  _163
REMARK   59  A    between atoms: _163  and  _164
REMARK   60  A    between atoms: _167  and  _169
REMARK   61  A    between atoms: _169  and  _170
REMARK   62  A    between atoms: _172  and  _174
REMARK   63  A    between atoms: _174  and  _175
REMARK   64  A    between atoms: _174  and  _177
REMARK   65  A    between atoms: _177  and  _178
REMARK   66  A    between atoms: _181  and  _183
REMARK   67  A    between atoms: _183  and  _184
REMARK   68  A    between atoms: _183  and  _186
REMARK   69  A    between atoms: _186  and  _187
REMARK   70  A    between atoms: _188  and  ZN_724
REMARK   71  A    between atoms: _192  and  _194
REMARK   72  A    between atoms: _194  and  _195
REMARK   73  A    between atoms: _194  and  _197
REMARK   74  A    between atoms: _197  and  _198
REMARK   75  A    between atoms: _201  and  _203
REMARK   76  A    between atoms: _203  and  _204
REMARK   77  A    between atoms: _203  and  _206
REMARK   78  A    between atoms: _206  and  _207
REMARK   79  A    between atoms: _207  and  _208
REMARK   80  A    between atoms: _211  and  _213
REMARK   81  A    between atoms: _213  and  _214
REMARK   82  A    between atoms: _213  and  _216
REMARK   83  A    between atoms: _216  and  _217
REMARK   84  A    between atoms: _227  and  _229
REMARK   85  A    between atoms: _229  and  _230
REMARK   86  A    between atoms: _232  and  _234
REMARK   87  A    between atoms: _234  and  _235
REMARK   88  A    between atoms: _234  and  _237
REMARK   89  A    between atoms: _237  and  _238
REMARK   90  A    between atoms: _241  and  _243
REMARK   91  A    between atoms: _243  and  _244
REMARK   92  A    between atoms: _243  and  _246
REMARK   93  A    between atoms: _246  and  _247
REMARK   94  A    between atoms: _252  and  _254
REMARK   95  A    between atoms: _254  and  _255
REMARK   96  A    between atoms: _254  and  _257
REMARK   97  A    between atoms: _257  and  _258
REMARK   98  A    between atoms: _261  and  _263
REMARK   99  A    between atoms: _263  and  _264
REMARK  100  A    between atoms: _263  and  _266
REMARK  101  A    between atoms: _266  and  _267
REMARK  102  A    between atoms: _273  and  _275
REMARK  103  A    between atoms: _275  and  _276
REMARK  104  A    between atoms: _275  and  _278
REMARK  105  A    between atoms: _278  and  _279
REMARK  106  A    between atoms: _282  and  _284
REMARK  107  A    between atoms: _284  and  _285
REMARK  108  A    between atoms: _284  and  _287
REMARK  109  A    between atoms: _290  and  _292
REMARK  110  A    between atoms: _292  and  _293
REMARK  111  A    between atoms: _296  and  _298
REMARK  112  A    between atoms: _298  and  _299
REMARK  113  A    between atoms: _302  and  _304
REMARK  114  A    between atoms: _315  and  _318
REMARK  115  A    between atoms: _318  and  _319
REMARK  116  A    between atoms: _319  and  _320
REMARK  117  A    between atoms: _325  and  _328
REMARK  118  A    between atoms: _328  and  _329
REMARK  119  A    between atoms: _339  and  _340
REMARK  120  A    between atoms: _348  and  _350
REMARK  121  A    between atoms: _350  and  _351
REMARK  122  A    between atoms: _350  and  _353
REMARK  123  A    between atoms: _353  and  _354
REMARK  124  A    between atoms: _356  and  _358
REMARK  125  A    between atoms: _358  and  _359
REMARK  126  A    between atoms: _358  and  _361
REMARK  127  A    between atoms: _361  and  _362
REMARK  128  A    between atoms: _366  and  ZN_723
REMARK  129  A    between atoms: _367  and  _369
REMARK  130  A    between atoms: _369  and  _370
REMARK  131  A    between atoms: _369  and  _372
REMARK  132  A    between atoms: _372  and  _373
REMARK  133  A    between atoms: _375  and  _377
REMARK  134  A    between atoms: _377  and  _378
REMARK  135  A    between atoms: _377  and  _380
REMARK  136  A    between atoms: _380  and  _381
REMARK  137  A    between atoms: _386  and  _388
REMARK  138  A    between atoms: _388  and  _389
REMARK  139  A    between atoms: _388  and  _391
REMARK  140  A    between atoms: _391  and  _392
REMARK  141  A    between atoms: _395  and  _397
REMARK  142  A    between atoms: _397  and  _398
REMARK  143  A    between atoms: _397  and  _400
REMARK  144  A    between atoms: _400  and  _401
REMARK  145  A    between atoms: _401  and  _402
REMARK  146  A    between atoms: _405  and  _407
REMARK  147  A    between atoms: _407  and  _408
REMARK  148  A    between atoms: _411  and  _413
REMARK  149  A    between atoms: _413  and  _414
REMARK  150  A    between atoms: _413  and  _416
REMARK  151  A    between atoms: _416  and  _417
REMARK  152  A    between atoms: _420  and  _422
REMARK  153  A    between atoms: _422  and  _423
REMARK  154  A    between atoms: _422  and  _425
REMARK  155  A    between atoms: _425  and  _426
REMARK  156  A    between atoms: _426  and  _427
REMARK  157  A    between atoms: _429  and  _431
REMARK  158  A    between atoms: _431  and  _432
REMARK  159  A    between atoms: _431  and  _434
REMARK  160  A    between atoms: _434  and  _435
REMARK  161  A    between atoms: _440  and  _441
REMARK  162  A    between atoms: _444  and  _445
REMARK  163  A    between atoms: _450  and  _452
REMARK  164  A    between atoms: _452  and  _453
REMARK  165  A    between atoms: _452  and  _455
REMARK  166  A    between atoms: _455  and  _456
REMARK  167  A    between atoms: _459  and  _461
REMARK  168  A    between atoms: _461  and  _462
REMARK  169  A    between atoms: _461  and  _464
REMARK  170  A    between atoms: _464  and  _465
REMARK  171  A    between atoms: _470  and  _471
REMARK  172  A    between atoms: _473  and  _475
REMARK  173  A    between atoms: _475  and  _476
REMARK  174  A    between atoms: _475  and  _478
REMARK  175  A    between atoms: _478  and  _479
REMARK  176  A    between atoms: _484  and  _486
REMARK  177  A    between atoms: _486  and  _487
REMARK  178  A    between atoms: _486  and  _489
REMARK  179  A    between atoms: _489  and  _490
REMARK  180  A    between atoms: _492  and  _494
REMARK  181  A    between atoms: _494  and  _495
REMARK  182  A    between atoms: _494  and  _497
REMARK  183  A    between atoms: _497  and  _498
REMARK  184  A    between atoms: _501  and  _503
REMARK  185  A    between atoms: _503  and  _504
REMARK  186  A    between atoms: _503  and  _506
REMARK  187  A    between atoms: _506  and  _507
REMARK  188  A    between atoms: _510  and  _512
REMARK  189  A    between atoms: _512  and  _513
REMARK  190  A    between atoms: _512  and  _515
REMARK  191  A    between atoms: _515  and  _516
REMARK  192  A    between atoms: _519  and  _521
REMARK  193  A    between atoms: _521  and  _522
REMARK  194  A    between atoms: _521  and  _524
REMARK  195  A    between atoms: _524  and  _525
REMARK  196  A    between atoms: _528  and  _530
REMARK  197  A    between atoms: _530  and  _531
REMARK  198  A    between atoms: _530  and  _533
REMARK  199  A    between atoms: _533  and  _534
REMARK  200  A    between atoms: _534  and  _535
REMARK  201  A    between atoms: _535  and  _536
REMARK  202  A    between atoms: _545  and  _547
REMARK  203  A    between atoms: _547  and  _548
REMARK  204  A    between atoms: _547  and  _550
REMARK  205  A    between atoms: _550  and  _551
REMARK  206  A    between atoms: _557  and  _559
REMARK  207  A    between atoms: _559  and  _560
REMARK  208  A    between atoms: _559  and  _562
REMARK  209  A    between atoms: _562  and  _563
REMARK  210  A    between atoms: _563  and  _564
REMARK  211  A    between atoms: _564  and  _565
REMARK  212  A    between atoms: _574  and  _576
REMARK  213  A    between atoms: _576  and  _577
REMARK  214  A    between atoms: _576  and  _579
REMARK  215  A    between atoms: _579  and  _580
REMARK  216  A    between atoms: _582  and  _584
REMARK  217  A    between atoms: _584  and  _585
REMARK  218  A    between atoms: _584  and  _587
REMARK  219  A    between atoms: _587  and  _588
REMARK  220  A    between atoms: _591  and  _593
REMARK  221  A    between atoms: _593  and  _594
REMARK  222  A    between atoms: _593  and  _596
REMARK  223  A    between atoms: _596  and  _597
REMARK  224  A    between atoms: _601  and  _602
REMARK  225  A    between atoms: _607  and  _609
REMARK  226  A    between atoms: _609  and  _610
REMARK  227  A    between atoms: _609  and  _612
REMARK  228  A    between atoms: _612  and  _613
REMARK  229  A    between atoms: _618  and  _620
REMARK  230  A    between atoms: _620  and  _621
REMARK  231  A    between atoms: _620  and  _623
REMARK  232  A    between atoms: _623  and  _624
REMARK  233  A    between atoms: _627  and  _629
REMARK  234  A    between atoms: _629  and  _630
REMARK  235  A    between atoms: _629  and  _632
REMARK  236  A    between atoms: _632  and  _633
REMARK  237  A    between atoms: _639  and  _641
REMARK  238  A    between atoms: _641  and  _642
REMARK  239  A    between atoms: _641  and  _644
REMARK  240  A    between atoms: _644  and  _645
REMARK  241  A    between atoms: _650  and  _652
REMARK  242  A    between atoms: _652  and  _653
REMARK  243  A    between atoms: _652  and  _655
REMARK  244  A    between atoms: _655  and  _656
REMARK  245  A    between atoms: _658  and  _660
REMARK  246  A    between atoms: _660  and  _661
REMARK  247  A    between atoms: _664  and  _666
REMARK  248  A    between atoms: _666  and  _667
REMARK  249  A    between atoms: _666  and  _669
REMARK  250  A    between atoms: _669  and  _670
REMARK  251  A    between atoms: _675  and  _677
REMARK  252  A    between atoms: _677  and  _678
REMARK  253  A    between atoms: _677  and  _680
REMARK  254  A    between atoms: _680  and  _681
REMARK  255  A    between atoms: _684  and  _686
REMARK  256  A    between atoms: _686  and  _687
REMARK  257  A    between atoms: _686  and  _689
REMARK  258  A    between atoms: _689  and  _690
REMARK  259  A    between atoms: _690  and  _691
REMARK  260  A    between atoms: _693  and  _695
REMARK  261  A    between atoms: _695  and  _696
REMARK  262  A    between atoms: _695  and  _698
REMARK  263  A    between atoms: _698  and  _699
REMARK  264  A    between atoms: _704  and  _705
REMARK  265  A    between atoms: _708  and  _709
REMARK  266  A    between atoms: _714  and  _716
REMARK  267  A    between atoms: _716  and  _717
REMARK  268  A    between atoms: _716  and  _719
REMARK  269  A    between atoms: _719  and  _720
REMARK                            x       y       z     vdW  Elec       q    Type
REMARK                         _______ _______ _______ _____ _____    ______ ____
ROOT
ATOM      1  O   HOH     1      43.789  37.104  25.170  0.00  0.00    +0.000 OA
ENDROOT
TORSDOF 0
REMARK  Name = ../refined-set-2016/1hfs/1hfs_pocket.pdb
REMARK  269 active torsions:
REMARK  status: ('A' for Active; 'I' for Inactive)
REMARK    1  A    between atoms: _1  and  _3
REMARK    2  A    between atoms: _3  and  _4
REMARK    3  A    between atoms: _3  and  _6
REMARK    4  A    between atoms: _6  and  _7
REMARK    5  A    between atoms: _11  and  ZN_724
REMARK    6  A    between atoms: _12  and  _14
REMARK    7  A    between atoms: _14  and  _15
REMARK    8  A    between atoms: _14  and  _17
REMARK    9  A    between atoms: _17  and  _18
REMARK   10  A    between atoms: _18  and  _20
REMARK   11  A    between atoms: _20  and  ZN_724
REMARK   12  A    between atoms: _21  and  _23
REMARK   13  A    between atoms: _23  and  _24
REMARK   14  A    between atoms: _23  and  _26
REMARK   15  A    between atoms: _26  and  _27
REMARK   16  A    between atoms: _33  and  _35
REMARK   17  A    between atoms: _35  and  _36
REMARK   18  A    between atoms: _35  and  _38
REMARK   19  A    between atoms: _38  and  _39
REMARK   20  A    between atoms: _44  and  _45
REMARK   21  A    between atoms: _48  and  _49
REMARK   22  A    between atoms: _54  and  _56
REMARK   23  A    between atoms: _56  and  _57
REMARK   24  A    between atoms: _56  and  _59
REMARK   25  A    between atoms: _59  and  _60
REMARK   26  A    between atoms: _66  and  _68
REMARK   27  A    between atoms: _68  and  _69
REMARK   28  A    between atoms: _68  and  _71
REMARK   29  A    between atoms: _71  and  _72
REMARK   30  A    between atoms: _76  and  _77
REMARK   31  A    between atoms: _82  and  _84
REMARK   32  A    between atoms: _89  and  _92
REMARK   33  A    between atoms: _92  and  _93
REMARK   34  A    between atoms: _100  and  _103
REMARK   35  A    between atoms: _101  and  _106
REMARK   36  A    between atoms: _106  and  _108
REMARK   37  A    between atoms: _108  and  _109
REMARK   38  A    between atoms: _108  and  _111
REMARK   39  A    between atoms: _111  and  _112
REMARK   40  A    between atoms: _115  and  _117
REMARK   41  A    between atoms: _117  and  _118
REMARK   42  A    between atoms: _121  and  _123
REMARK   43  A    between atoms: _123  and  _124
REMARK   44  A    between atoms: _123  and  _126
REMARK   45  A    between atoms: _126  and  _127
REMARK   46  A    between atoms: _131  and  ZN_724
REMARK   47  A    between atoms: _132  and  _134
REMARK   48  A    between atoms: _134  and  _135
REMARK   49  A    between atoms: _138  and  _140
REMARK   50  A    between atoms: _140  and  _141
REMARK   51  A    between atoms: _140  and  _143
REMARK   52  A    between atoms: _143  and  _144
REMARK   53  A    between atoms: _149  and  _150
REMARK   54  A    between atoms: _152  and  _154
REMARK   55  A    between atoms: _154  and  _155
REMARK   56  A    between atoms: _158  and  _160
REMARK   57  A    between atoms: _160  and  _161
REMARK   58  A    between atoms: _160  and  _163
REMARK   59  A    between atoms: _163  and  _164
REMARK   60  A    between atoms: _167  and  _169
REMARK   61  A    between atoms: _169  and  _170
REMARK   62  A    between atoms: _172  and  _174
REMARK   63  A    between atoms: _174  and  _175
REMARK   64  A    between atoms: _174  and  _177
REMARK   65  A    between atoms: _177  and  _178
REMARK   66  A    between atoms: _181  and  _183
REMARK   67  A    between atoms: _183  and  _184
REMARK   68  A    between atoms: _183  and  _186
REMARK   69  A    between atoms: _186  and  _187
REMARK   70  A    between atoms: _188  and  ZN_724
REMARK   71  A    between atoms: _192  and  _194
REMARK   72  A    between atoms: _194  and  _195
REMARK   73  A    between atoms: _194  and  _197
REMARK   74  A    between atoms: _197  and  _198
REMARK   75  A    between atoms: _201  and  _203
REMARK   76  A    between atoms: _203  and  _204
REMARK   77  A    between atoms: _203  and  _206
REMARK   78  A    between atoms: _206  and  _207
REMARK   79  A    between atoms: _207  and  _208
REMARK   80  A    between atoms: _211  and  _213
REMARK   81  A    between atoms: _213  and  _214
REMARK   82  A    between atoms: _213  and  _216
REMARK   83  A    between atoms: _216  and  _217
REMARK   84  A    between atoms: _227  and  _229
REMARK   85  A    between atoms: _229  and  _230
REMARK   86  A    between atoms: _232  and  _234
REMARK   87  A    between atoms: _234  and  _235
REMARK   88  A    between atoms: _234  and  _237
REMARK   89  A    between atoms: _237  and  _238
REMARK   90  A    between atoms: _241  and  _243
REMARK   91  A    between atoms: _243  and  _244
REMARK   92  A    between atoms: _243  and  _246
REMARK   93  A    between atoms: _246  and  _247
REMARK   94  A    between atoms: _252  and  _254
REMARK   95  A    between atoms: _254  and  _255
REMARK   96  A    between atoms: _254  and  _257
REMARK   97  A    between atoms: _257  and  _258
REMARK   98  A    between atoms: _261  and  _263
REMARK   99  A    between atoms: _263  and  _264
REMARK  100  A    between atoms: _263  and  _266
REMARK  101  A    between atoms: _266  and  _267
REMARK  102  A    between atoms: _273  and  _275
REMARK  103  A    between atoms: _275  and  _276
REMARK  104  A    between atoms: _275  and  _278
REMARK  105  A    between atoms: _278  and  _279
REMARK  106  A    between atoms: _282  and  _284
REMARK  107  A    between atoms: _284  and  _285
REMARK  108  A    between atoms: _284  and  _287
REMARK  109  A    between atoms: _290  and  _292
REMARK  110  A    between atoms: _292  and  _293
REMARK  111  A    between atoms: _296  and  _298
REMARK  112  A    between atoms: _298  and  _299
REMARK  113  A    between atoms: _302  and  _304
REMARK  114  A    between atoms: _315  and  _318
REMARK  115  A    between atoms: _318  and  _319
REMARK  116  A    between atoms: _319  and  _320
REMARK  117  A    between atoms: _325  and  _328
REMARK  118  A    between atoms: _328  and  _329
REMARK  119  A    between atoms: _339  and  _340
REMARK  120  A    between atoms: _348  and  _350
REMARK  121  A    between atoms: _350  and  _351
REMARK  122  A    between atoms: _350  and  _353
REMARK  123  A    between atoms: _353  and  _354
REMARK  124  A    between atoms: _356  and  _358
REMARK  125  A    between atoms: _358  and  _359
REMARK  126  A    between atoms: _358  and  _361
REMARK  127  A    between atoms: _361  and  _362
REMARK  128  A    between atoms: _366  and  ZN_723
REMARK  129  A    between atoms: _367  and  _369
REMARK  130  A    between atoms: _369  and  _370
REMARK  131  A    between atoms: _369  and  _372
REMARK  132  A    between atoms: _372  and  _373
REMARK  133  A    between atoms: _375  and  _377
REMARK  134  A    between atoms: _377  and  _378
REMARK  135  A    between atoms: _377  and  _380
REMARK  136  A    between atoms: _380  and  _381
REMARK  137  A    between atoms: _386  and  _388
REMARK  138  A    between atoms: _388  and  _389
REMARK  139  A    between atoms: _388  and  _391
REMARK  140  A    between atoms: _391  and  _392
REMARK  141  A    between atoms: _395  and  _397
REMARK  142  A    between atoms: _397  and  _398
REMARK  143  A    between atoms: _397  and  _400
REMARK  144  A    between atoms: _400  and  _401
REMARK  145  A    between atoms: _401  and  _402
REMARK  146  A    between atoms: _405  and  _407
REMARK  147  A    between atoms: _407  and  _408
REMARK  148  A    between atoms: _411  and  _413
REMARK  149  A    between atoms: _413  and  _414
REMARK  150  A    between atoms: _413  and  _416
REMARK  151  A    between atoms: _416  and  _417
REMARK  152  A    between atoms: _420  and  _422
REMARK  153  A    between atoms: _422  and  _423
REMARK  154  A    between atoms: _422  and  _425
REMARK  155  A    between atoms: _425  and  _426
REMARK  156  A    between atoms: _426  and  _427
REMARK  157  A    between atoms: _429  and  _431
REMARK  158  A    between atoms: _431  and  _432
REMARK  159  A    between atoms: _431  and  _434
REMARK  160  A    between atoms: _434  and  _435
REMARK  161  A    between atoms: _440  and  _441
REMARK  162  A    between atoms: _444  and  _445
REMARK  163  A    between atoms: _450  and  _452
REMARK  164  A    between atoms: _452  and  _453
REMARK  165  A    between atoms: _452  and  _455
REMARK  166  A    between atoms: _455  and  _456
REMARK  167  A    between atoms: _459  and  _461
REMARK  168  A    between atoms: _461  and  _462
REMARK  169  A    between atoms: _461  and  _464
REMARK  170  A    between atoms: _464  and  _465
REMARK  171  A    between atoms: _470  and  _471
REMARK  172  A    between atoms: _473  and  _475
REMARK  173  A    between atoms: _475  and  _476
REMARK  174  A    between atoms: _475  and  _478
REMARK  175  A    between atoms: _478  and  _479
REMARK  176  A    between atoms: _484  and  _486
REMARK  177  A    between atoms: _486  and  _487
REMARK  178  A    between atoms: _486  and  _489
REMARK  179  A    between atoms: _489  and  _490
REMARK  180  A    between atoms: _492  and  _494
REMARK  181  A    between atoms: _494  and  _495
REMARK  182  A    between atoms: _494  and  _497
REMARK  183  A    between atoms: _497  and  _498
REMARK  184  A    between atoms: _501  and  _503
REMARK  185  A    between atoms: _503  and  _504
REMARK  186  A    between atoms: _503  and  _506
REMARK  187  A    between atoms: _506  and  _507
REMARK  188  A    between atoms: _510  and  _512
REMARK  189  A    between atoms: _512  and  _513
REMARK  190  A    between atoms: _512  and  _515
REMARK  191  A    between atoms: _515  and  _516
REMARK  192  A    between atoms: _519  and  _521
REMARK  193  A    between atoms: _521  and  _522
REMARK  194  A    between atoms: _521  and  _524
REMARK  195  A    between atoms: _524  and  _525
REMARK  196  A    between atoms: _528  and  _530
REMARK  197  A    between atoms: _530  and  _531
REMARK  198  A    between atoms: _530  and  _533
REMARK  199  A    between atoms: _533  and  _534
REMARK  200  A    between atoms: _534  and  _535
REMARK  201  A    between atoms: _535  and  _536
REMARK  202  A    between atoms: _545  and  _547
REMARK  203  A    between atoms: _547  and  _548
REMARK  204  A    between atoms: _547  and  _550
REMARK  205  A    between atoms: _550  and  _551
REMARK  206  A    between atoms: _557  and  _559
REMARK  207  A    between atoms: _559  and  _560
REMARK  208  A    between atoms: _559  and  _562
REMARK  209  A    between atoms: _562  and  _563
REMARK  210  A    between atoms: _563  and  _564
REMARK  211  A    between atoms: _564  and  _565
REMARK  212  A    between atoms: _574  and  _576
REMARK  213  A    between atoms: _576  and  _577
REMARK  214  A    between atoms: _576  and  _579
REMARK  215  A    between atoms: _579  and  _580
REMARK  216  A    between atoms: _582  and  _584
REMARK  217  A    between atoms: _584  and  _585
REMARK  218  A    between atoms: _584  and  _587
REMARK  219  A    between atoms: _587  and  _588
REMARK  220  A    between atoms: _591  and  _593
REMARK  221  A    between atoms: _593  and  _594
REMARK  222  A    between atoms: _593  and  _596
REMARK  223  A    between atoms: _596  and  _597
REMARK  224  A    between atoms: _601  and  _602
REMARK  225  A    between atoms: _607  and  _609
REMARK  226  A    between atoms: _609  and  _610
REMARK  227  A    between atoms: _609  and  _612
REMARK  228  A    between atoms: _612  and  _613
REMARK  229  A    between atoms: _618  and  _620
REMARK  230  A    between atoms: _620  and  _621
REMARK  231  A    between atoms: _620  and  _623
REMARK  232  A    between atoms: _623  and  _624
REMARK  233  A    between atoms: _627  and  _629
REMARK  234  A    between atoms: _629  and  _630
REMARK  235  A    between atoms: _629  and  _632
REMARK  236  A    between atoms: _632  and  _633
REMARK  237  A    between atoms: _639  and  _641
REMARK  238  A    between atoms: _641  and  _642
REMARK  239  A    between atoms: _641  and  _644
REMARK  240  A    between atoms: _644  and  _645
REMARK  241  A    between atoms: _650  and  _652
REMARK  242  A    between atoms: _652  and  _653
REMARK  243  A    between atoms: _652  and  _655
REMARK  244  A    between atoms: _655  and  _656
REMARK  245  A    between atoms: _658  and  _660
REMARK  246  A    between atoms: _660  and  _661
REMARK  247  A    between atoms: _664  and  _666
REMARK  248  A    between atoms: _666  and  _667
REMARK  249  A    between atoms: _666  and  _669
REMARK  250  A    between atoms: _669  and  _670
REMARK  251  A    between atoms: _675  and  _677
REMARK  252  A    between atoms: _677  and  _678
REMARK  253  A    between atoms: _677  and  _680
REMARK  254  A    between atoms: _680  and  _681
REMARK  255  A    between atoms: _684  and  _686
REMARK  256  A    between atoms: _686  and  _687
REMARK  257  A    between atoms: _686  and  _689
REMARK  258  A    between atoms: _689  and  _690
REMARK  259  A    between atoms: _690  and  _691
REMARK  260  A    between atoms: _693  and  _695
REMARK  261  A    between atoms: _695  and  _696
REMARK  262  A    between atoms: _695  and  _698
REMARK  263  A    between atoms: _698  and  _699
REMARK  264  A    between atoms: _704  and  _705
REMARK  265  A    between atoms: _708  and  _709
REMARK  266  A    between atoms: _714  and  _716
REMARK  267  A    between atoms: _716  and  _717
REMARK  268  A    between atoms: _716  and  _719
REMARK  269  A    between atoms: _719  and  _720
REMARK                            x       y       z     vdW  Elec       q    Type
REMARK                         _______ _______ _______ _____ _____    ______ ____
ROOT
ATOM      1  O   HOH     1      25.964  43.021  12.963  0.00  0.00    +0.000 OA
ENDROOT
TORSDOF 0
REMARK  Name = ../refined-set-2016/1hfs/1hfs_pocket.pdb
REMARK  269 active torsions:
REMARK  status: ('A' for Active; 'I' for Inactive)
REMARK    1  A    between atoms: _1  and  _3
REMARK    2  A    between atoms: _3  and  _4
REMARK    3  A    between atoms: _3  and  _6
REMARK    4  A    between atoms: _6  and  _7
REMARK    5  A    between atoms: _11  and  ZN_724
REMARK    6  A    between atoms: _12  and  _14
REMARK    7  A    between atoms: _14  and  _15
REMARK    8  A    between atoms: _14  and  _17
REMARK    9  A    between atoms: _17  and  _18
REMARK   10  A    between atoms: _18  and  _20
REMARK   11  A    between atoms: _20  and  ZN_724
REMARK   12  A    between atoms: _21  and  _23
REMARK   13  A    between atoms: _23  and  _24
REMARK   14  A    between atoms: _23  and  _26
REMARK   15  A    between atoms: _26  and  _27
REMARK   16  A    between atoms: _33  and  _35
REMARK   17  A    between atoms: _35  and  _36
REMARK   18  A    between atoms: _35  and  _38
REMARK   19  A    between atoms: _38  and  _39
REMARK   20  A    between atoms: _44  and  _45
REMARK   21  A    between atoms: _48  and  _49
REMARK   22  A    between atoms: _54  and  _56
REMARK   23  A    between atoms: _56  and  _57
REMARK   24  A    between atoms: _56  and  _59
REMARK   25  A    between atoms: _59  and  _60
REMARK   26  A    between atoms: _66  and  _68
REMARK   27  A    between atoms: _68  and  _69
REMARK   28  A    between atoms: _68  and  _71
REMARK   29  A    between atoms: _71  and  _72
REMARK   30  A    between atoms: _76  and  _77
REMARK   31  A    between atoms: _82  and  _84
REMARK   32  A    between atoms: _89  and  _92
REMARK   33  A    between atoms: _92  and  _93
REMARK   34  A    between atoms: _100  and  _103
REMARK   35  A    between atoms: _101  and  _106
REMARK   36  A    between atoms: _106  and  _108
REMARK   37  A    between atoms: _108  and  _109
REMARK   38  A    between atoms: _108  and  _111
REMARK   39  A    between atoms: _111  and  _112
REMARK   40  A    between atoms: _115  and  _117
REMARK   41  A    between atoms: _117  and  _118
REMARK   42  A    between atoms: _121  and  _123
REMARK   43  A    between atoms: _123  and  _124
REMARK   44  A    between atoms: _123  and  _126
REMARK   45  A    between atoms: _126  and  _127
REMARK   46  A    between atoms: _131  and  ZN_724
REMARK   47  A    between atoms: _132  and  _134
REMARK   48  A    between atoms: _134  and  _135
REMARK   49  A    between atoms: _138  and  _140
REMARK   50  A    between atoms: _140  and  _141
REMARK   51  A    between atoms: _140  and  _143
REMARK   52  A    between atoms: _143  and  _144
REMARK   53  A    between atoms: _149  and  _150
REMARK   54  A    between atoms: _152  and  _154
REMARK   55  A    between atoms: _154  and  _155
REMARK   56  A    between atoms: _158  and  _160
REMARK   57  A    between atoms: _160  and  _161
REMARK   58  A    between atoms: _160  and  _163
REMARK   59  A    between atoms: _163  and  _164
REMARK   60  A    between atoms: _167  and  _169
REMARK   61  A    between atoms: _169  and  _170
REMARK   62  A    between atoms: _172  and  _174
REMARK   63  A    between atoms: _174  and  _175
REMARK   64  A    between atoms: _174  and  _177
REMARK   65  A    between atoms: _177  and  _178
REMARK   66  A    between atoms: _181  and  _183
REMARK   67  A    between atoms: _183  and  _184
REMARK   68  A    between atoms: _183  and  _186
REMARK   69  A    between atoms: _186  and  _187
REMARK   70  A    between atoms: _188  and  ZN_724
REMARK   71  A    between atoms: _192  and  _194
REMARK   72  A    between atoms: _194  and  _195
REMARK   73  A    between atoms: _194  and  _197
REMARK   74  A    between atoms: _197  and  _198
REMARK   75  A    between atoms: _201  and  _203
REMARK   76  A    between atoms: _203  and  _204
REMARK   77  A    between atoms: _203  and  _206
REMARK   78  A    between atoms: _206  and  _207
REMARK   79  A    between atoms: _207  and  _208
REMARK   80  A    between atoms: _211  and  _213
REMARK   81  A    between atoms: _213  and  _214
REMARK   82  A    between atoms: _213  and  _216
REMARK   83  A    between atoms: _216  and  _217
REMARK   84  A    between atoms: _227  and  _229
REMARK   85  A    between atoms: _229  and  _230
REMARK   86  A    between atoms: _232  and  _234
REMARK   87  A    between atoms: _234  and  _235
REMARK   88  A    between atoms: _234  and  _237
REMARK   89  A    between atoms: _237  and  _238
REMARK   90  A    between atoms: _241  and  _243
REMARK   91  A    between atoms: _243  and  _244
REMARK   92  A    between atoms: _243  and  _246
REMARK   93  A    between atoms: _246  and  _247
REMARK   94  A    between atoms: _252  and  _254
REMARK   95  A    between atoms: _254  and  _255
REMARK   96  A    between atoms: _254  and  _257
REMARK   97  A    between atoms: _257  and  _258
REMARK   98  A    between atoms: _261  and  _263
REMARK   99  A    between atoms: _263  and  _264
REMARK  100  A    between atoms: _263  and  _266
REMARK  101  A    between atoms: _266  and  _267
REMARK  102  A    between atoms: _273  and  _275
REMARK  103  A    between atoms: _275  and  _276
REMARK  104  A    between atoms: _275  and  _278
REMARK  105  A    between atoms: _278  and  _279
REMARK  106  A    between atoms: _282  and  _284
REMARK  107  A    between atoms: _284  and  _285
REMARK  108  A    between atoms: _284  and  _287
REMARK  109  A    between atoms: _290  and  _292
REMARK  110  A    between atoms: _292  and  _293
REMARK  111  A    between atoms: _296  and  _298
REMARK  112  A    between atoms: _298  and  _299
REMARK  113  A    between atoms: _302  and  _304
REMARK  114  A    between atoms: _315  and  _318
REMARK  115  A    between atoms: _318  and  _319
REMARK  116  A    between atoms: _319  and  _320
REMARK  117  A    between atoms: _325  and  _328
REMARK  118  A    between atoms: _328  and  _329
REMARK  119  A    between atoms: _339  and  _340
REMARK  120  A    between atoms: _348  and  _350
REMARK  121  A    between atoms: _350  and  _351
REMARK  122  A    between atoms: _350  and  _353
REMARK  123  A    between atoms: _353  and  _354
REMARK  124  A    between atoms: _356  and  _358
REMARK  125  A    between atoms: _358  and  _359
REMARK  126  A    between atoms: _358  and  _361
REMARK  127  A    between atoms: _361  and  _362
REMARK  128  A    between atoms: _366  and  ZN_723
REMARK  129  A    between atoms: _367  and  _369
REMARK  130  A    between atoms: _369  and  _370
REMARK  131  A    between atoms: _369  and  _372
REMARK  132  A    between atoms: _372  and  _373
REMARK  133  A    between atoms: _375  and  _377
REMARK  134  A    between atoms: _377  and  _378
REMARK  135  A    between atoms: _377  and  _380
REMARK  136  A    between atoms: _380  and  _381
REMARK  137  A    between atoms: _386  and  _388
REMARK  138  A    between atoms: _388  and  _389
REMARK  139  A    between atoms: _388  and  _391
REMARK  140  A    between atoms: _391  and  _392
REMARK  141  A    between atoms: _395  and  _397
REMARK  142  A    between atoms: _397  and  _398
REMARK  143  A    between atoms: _397  and  _400
REMARK  144  A    between atoms: _400  and  _401
REMARK  145  A    between atoms: _401  and  _402
REMARK  146  A    between atoms: _405  and  _407
REMARK  147  A    between atoms: _407  and  _408
REMARK  148  A    between atoms: _411  and  _413
REMARK  149  A    between atoms: _413  and  _414
REMARK  150  A    between atoms: _413  and  _416
REMARK  151  A    between atoms: _416  and  _417
REMARK  152  A    between atoms: _420  and  _422
REMARK  153  A    between atoms: _422  and  _423
REMARK  154  A    between atoms: _422  and  _425
REMARK  155  A    between atoms: _425  and  _426
REMARK  156  A    between atoms: _426  and  _427
REMARK  157  A    between atoms: _429  and  _431
REMARK  158  A    between atoms: _431  and  _432
REMARK  159  A    between atoms: _431  and  _434
REMARK  160  A    between atoms: _434  and  _435
REMARK  161  A    between atoms: _440  and  _441
REMARK  162  A    between atoms: _444  and  _445
REMARK  163  A    between atoms: _450  and  _452
REMARK  164  A    between atoms: _452  and  _453
REMARK  165  A    between atoms: _452  and  _455
REMARK  166  A    between atoms: _455  and  _456
REMARK  167  A    between atoms: _459  and  _461
REMARK  168  A    between atoms: _461  and  _462
REMARK  169  A    between atoms: _461  and  _464
REMARK  170  A    between atoms: _464  and  _465
REMARK  171  A    between atoms: _470  and  _471
REMARK  172  A    between atoms: _473  and  _475
REMARK  173  A    between atoms: _475  and  _476
REMARK  174  A    between atoms: _475  and  _478
REMARK  175  A    between atoms: _478  and  _479
REMARK  176  A    between atoms: _484  and  _486
REMARK  177  A    between atoms: _486  and  _487
REMARK  178  A    between atoms: _486  and  _489
REMARK  179  A    between atoms: _489  and  _490
REMARK  180  A    between atoms: _492  and  _494
REMARK  181  A    between atoms: _494  and  _495
REMARK  182  A    between atoms: _494  and  _497
REMARK  183  A    between atoms: _497  and  _498
REMARK  184  A    between atoms: _501  and  _503
REMARK  185  A    between atoms: _503  and  _504
REMARK  186  A    between atoms: _503  and  _506
REMARK  187  A    between atoms: _506  and  _507
REMARK  188  A    between atoms: _510  and  _512
REMARK  189  A    between atoms: _512  and  _513
REMARK  190  A    between atoms: _512  and  _515
REMARK  191  A    between atoms: _515  and  _516
REMARK  192  A    between atoms: _519  and  _521
REMARK  193  A    between atoms: _521  and  _522
REMARK  194  A    between atoms: _521  and  _524
REMARK  195  A    between atoms: _524  and  _525
REMARK  196  A    between atoms: _528  and  _530
REMARK  197  A    between atoms: _530  and  _531
REMARK  198  A    between atoms: _530  and  _533
REMARK  199  A    between atoms: _533  and  _534
REMARK  200  A    between atoms: _534  and  _535
REMARK  201  A    between atoms: _535  and  _536
REMARK  202  A    between atoms: _545  and  _547
REMARK  203  A    between atoms: _547  and  _548
REMARK  204  A    between atoms: _547  and  _550
REMARK  205  A    between atoms: _550  and  _551
REMARK  206  A    between atoms: _557  and  _559
REMARK  207  A    between atoms: _559  and  _560
REMARK  208  A    between atoms: _559  and  _562
REMARK  209  A    between atoms: _562  and  _563
REMARK  210  A    between atoms: _563  and  _564
REMARK  211  A    between atoms: _564  and  _565
REMARK  212  A    between atoms: _574  and  _576
REMARK  213  A    between atoms: _576  and  _577
REMARK  214  A    between atoms: _576  and  _579
REMARK  215  A    between atoms: _579  and  _580
REMARK  216  A    between atoms: _582  and  _584
REMARK  217  A    between atoms: _584  and  _585
REMARK  218  A    between atoms: _584  and  _587
REMARK  219  A    between atoms: _587  and  _588
REMARK  220  A    between atoms: _591  and  _593
REMARK  221  A    between atoms: _593  and  _594
REMARK  222  A    between atoms: _593  and  _596
REMARK  223  A    between atoms: _596  and  _597
REMARK  224  A    between atoms: _601  and  _602
REMARK  225  A    between atoms: _607  and  _609
REMARK  226  A    between atoms: _609  and  _610
REMARK  227  A    between atoms: _609  and  _612
REMARK  228  A    between atoms: _612  and  _613
REMARK  229  A    between atoms: _618  and  _620
REMARK  230  A    between atoms: _620  and  _621
REMARK  231  A    between atoms: _620  and  _623
REMARK  232  A    between atoms: _623  and  _624
REMARK  233  A    between atoms: _627  and  _629
REMARK  234  A    between atoms: _629  and  _630
REMARK  235  A    between atoms: _629  and  _632
REMARK  236  A    between atoms: _632  and  _633
REMARK  237  A    between atoms: _639  and  _641
REMARK  238  A    between atoms: _641  and  _642
REMARK  239  A    between atoms: _641  and  _644
REMARK  240  A    between atoms: _644  and  _645
REMARK  241  A    between atoms: _650  and  _652
REMARK  242  A    between atoms: _652  and  _653
REMARK  243  A    between atoms: _652  and  _655
REMARK  244  A    between atoms: _655  and  _656
REMARK  245  A    between atoms: _658  and  _660
REMARK  246  A    between atoms: _660  and  _661
REMARK  247  A    between atoms: _664  and  _666
REMARK  248  A    between atoms: _666  and  _667
REMARK  249  A    between atoms: _666  and  _669
REMARK  250  A    between atoms: _669  and  _670
REMARK  251  A    between atoms: _675  and  _677
REMARK  252  A    between atoms: _677  and  _678
REMARK  253  A    between atoms: _677  and  _680
REMARK  254  A    between atoms: _680  and  _681
REMARK  255  A    between atoms: _684  and  _686
REMARK  256  A    between atoms: _686  and  _687
REMARK  257  A    between atoms: _686  and  _689
REMARK  258  A    between atoms: _689  and  _690
REMARK  259  A    between atoms: _690  and  _691
REMARK  260  A    between atoms: _693  and  _695
REMARK  261  A    between atoms: _695  and  _696
REMARK  262  A    between atoms: _695  and  _698
REMARK  263  A    between atoms: _698  and  _699
REMARK  264  A    between atoms: _704  and  _705
REMARK  265  A    between atoms: _708  and  _709
REMARK  266  A    between atoms: _714  and  _716
REMARK  267  A    between atoms: _716  and  _717
REMARK  268  A    between atoms: _716  and  _719
REMARK  269  A    between atoms: _719  and  _720
REMARK                            x       y       z     vdW  Elec       q    Type
REMARK                         _______ _______ _______ _____ _____    ______ ____
ROOT
ATOM      1  O   HOH     1      42.065  37.042  13.812  0.00  0.00    +0.000 OA
ENDROOT
TORSDOF 0
REMARK  Name = ../refined-set-2016/1hfs/1hfs_pocket.pdb
REMARK  269 active torsions:
REMARK  status: ('A' for Active; 'I' for Inactive)
REMARK    1  A    between atoms: _1  and  _3
REMARK    2  A    between atoms: _3  and  _4
REMARK    3  A    between atoms: _3  and  _6
REMARK    4  A    between atoms: _6  and  _7
REMARK    5  A    between atoms: _11  and  ZN_724
REMARK    6  A    between atoms: _12  and  _14
REMARK    7  A    between atoms: _14  and  _15
REMARK    8  A    between atoms: _14  and  _17
REMARK    9  A    between atoms: _17  and  _18
REMARK   10  A    between atoms: _18  and  _20
REMARK   11  A    between atoms: _20  and  ZN_724
REMARK   12  A    between atoms: _21  and  _23
REMARK   13  A    between atoms: _23  and  _24
REMARK   14  A    between atoms: _23  and  _26
REMARK   15  A    between atoms: _26  and  _27
REMARK   16  A    between atoms: _33  and  _35
REMARK   17  A    between atoms: _35  and  _36
REMARK   18  A    between atoms: _35  and  _38
REMARK   19  A    between atoms: _38  and  _39
REMARK   20  A    between atoms: _44  and  _45
REMARK   21  A    between atoms: _48  and  _49
REMARK   22  A    between atoms: _54  and  _56
REMARK   23  A    between atoms: _56  and  _57
REMARK   24  A    between atoms: _56  and  _59
REMARK   25  A    between atoms: _59  and  _60
REMARK   26  A    between atoms: _66  and  _68
REMARK   27  A    between atoms: _68  and  _69
REMARK   28  A    between atoms: _68  and  _71
REMARK   29  A    between atoms: _71  and  _72
REMARK   30  A    between atoms: _76  and  _77
REMARK   31  A    between atoms: _82  and  _84
REMARK   32  A    between atoms: _89  and  _92
REMARK   33  A    between atoms: _92  and  _93
REMARK   34  A    between atoms: _100  and  _103
REMARK   35  A    between atoms: _101  and  _106
REMARK   36  A    between atoms: _106  and  _108
REMARK   37  A    between atoms: _108  and  _109
REMARK   38  A    between atoms: _108  and  _111
REMARK   39  A    between atoms: _111  and  _112
REMARK   40  A    between atoms: _115  and  _117
REMARK   41  A    between atoms: _117  and  _118
REMARK   42  A    between atoms: _121  and  _123
REMARK   43  A    between atoms: _123  and  _124
REMARK   44  A    between atoms: _123  and  _126
REMARK   45  A    between atoms: _126  and  _127
REMARK   46  A    between atoms: _131  and  ZN_724
REMARK   47  A    between atoms: _132  and  _134
REMARK   48  A    between atoms: _134  and  _135
REMARK   49  A    between atoms: _138  and  _140
REMARK   50  A    between atoms: _140  and  _141
REMARK   51  A    between atoms: _140  and  _143
REMARK   52  A    between atoms: _143  and  _144
REMARK   53  A    between atoms: _149  and  _150
REMARK   54  A    between atoms: _152  and  _154
REMARK   55  A    between atoms: _154  and  _155
REMARK   56  A    between atoms: _158  and  _160
REMARK   57  A    between atoms: _160  and  _161
REMARK   58  A    between atoms: _160  and  _163
REMARK   59  A    between atoms: _163  and  _164
REMARK   60  A    between atoms: _167  and  _169
REMARK   61  A    between atoms: _169  and  _170
REMARK   62  A    between atoms: _172  and  _174
REMARK   63  A    between atoms: _174  and  _175
REMARK   64  A    between atoms: _174  and  _177
REMARK   65  A    between atoms: _177  and  _178
REMARK   66  A    between atoms: _181  and  _183
REMARK   67  A    between atoms: _183  and  _184
REMARK   68  A    between atoms: _183  and  _186
REMARK   69  A    between atoms: _186  and  _187
REMARK   70  A    between atoms: _188  and  ZN_724
REMARK   71  A    between atoms: _192  and  _194
REMARK   72  A    between atoms: _194  and  _195
REMARK   73  A    between atoms: _194  and  _197
REMARK   74  A    between atoms: _197  and  _198
REMARK   75  A    between atoms: _201  and  _203
REMARK   76  A    between atoms: _203  and  _204
REMARK   77  A    between atoms: _203  and  _206
REMARK   78  A    between atoms: _206  and  _207
REMARK   79  A    between atoms: _207  and  _208
REMARK   80  A    between atoms: _211  and  _213
REMARK   81  A    between atoms: _213  and  _214
REMARK   82  A    between atoms: _213  and  _216
REMARK   83  A    between atoms: _216  and  _217
REMARK   84  A    between atoms: _227  and  _229
REMARK   85  A    between atoms: _229  and  _230
REMARK   86  A    between atoms: _232  and  _234
REMARK   87  A    between atoms: _234  and  _235
REMARK   88  A    between atoms: _234  and  _237
REMARK   89  A    between atoms: _237  and  _238
REMARK   90  A    between atoms: _241  and  _243
REMARK   91  A    between atoms: _243  and  _244
REMARK   92  A    between atoms: _243  and  _246
REMARK   93  A    between atoms: _246  and  _247
REMARK   94  A    between atoms: _252  and  _254
REMARK   95  A    between atoms: _254  and  _255
REMARK   96  A    between atoms: _254  and  _257
REMARK   97  A    between atoms: _257  and  _258
REMARK   98  A    between atoms: _261  and  _263
REMARK   99  A    between atoms: _263  and  _264
REMARK  100  A    between atoms: _263  and  _266
REMARK  101  A    between atoms: _266  and  _267
REMARK  102  A    between atoms: _273  and  _275
REMARK  103  A    between atoms: _275  and  _276
REMARK  104  A    between atoms: _275  and  _278
REMARK  105  A    between atoms: _278  and  _279
REMARK  106  A    between atoms: _282  and  _284
REMARK  107  A    between atoms: _284  and  _285
REMARK  108  A    between atoms: _284  and  _287
REMARK  109  A    between atoms: _290  and  _292
REMARK  110  A    between atoms: _292  and  _293
REMARK  111  A    between atoms: _296  and  _298
REMARK  112  A    between atoms: _298  and  _299
REMARK  113  A    between atoms: _302  and  _304
REMARK  114  A    between atoms: _315  and  _318
REMARK  115  A    between atoms: _318  and  _319
REMARK  116  A    between atoms: _319  and  _320
REMARK  117  A    between atoms: _325  and  _328
REMARK  118  A    between atoms: _328  and  _329
REMARK  119  A    between atoms: _339  and  _340
REMARK  120  A    between atoms: _348  and  _350
REMARK  121  A    between atoms: _350  and  _351
REMARK  122  A    between atoms: _350  and  _353
REMARK  123  A    between atoms: _353  and  _354
REMARK  124  A    between atoms: _356  and  _358
REMARK  125  A    between atoms: _358  and  _359
REMARK  126  A    between atoms: _358  and  _361
REMARK  127  A    between atoms: _361  and  _362
REMARK  128  A    between atoms: _366  and  ZN_723
REMARK  129  A    between atoms: _367  and  _369
REMARK  130  A    between atoms: _369  and  _370
REMARK  131  A    between atoms: _369  and  _372
REMARK  132  A    between atoms: _372  and  _373
REMARK  133  A    between atoms: _375  and  _377
REMARK  134  A    between atoms: _377  and  _378
REMARK  135  A    between atoms: _377  and  _380
REMARK  136  A    between atoms: _380  and  _381
REMARK  137  A    between atoms: _386  and  _388
REMARK  138  A    between atoms: _388  and  _389
REMARK  139  A    between atoms: _388  and  _391
REMARK  140  A    between atoms: _391  and  _392
REMARK  141  A    between atoms: _395  and  _397
REMARK  142  A    between atoms: _397  and  _398
REMARK  143  A    between atoms: _397  and  _400
REMARK  144  A    between atoms: _400  and  _401
REMARK  145  A    between atoms: _401  and  _402
REMARK  146  A    between atoms: _405  and  _407
REMARK  147  A    between atoms: _407  and  _408
REMARK  148  A    between atoms: _411  and  _413
REMARK  149  A    between atoms: _413  and  _414
REMARK  150  A    between atoms: _413  and  _416
REMARK  151  A    between atoms: _416  and  _417
REMARK  152  A    between atoms: _420  and  _422
REMARK  153  A    between atoms: _422  and  _423
REMARK  154  A    between atoms: _422  and  _425
REMARK  155  A    between atoms: _425  and  _426
REMARK  156  A    between atoms: _426  and  _427
REMARK  157  A    between atoms: _429  and  _431
REMARK  158  A    between atoms: _431  and  _432
REMARK  159  A    between atoms: _431  and  _434
REMARK  160  A    between atoms: _434  and  _435
REMARK  161  A    between atoms: _440  and  _441
REMARK  162  A    between atoms: _444  and  _445
REMARK  163  A    between atoms: _450  and  _452
REMARK  164  A    between atoms: _452  and  _453
REMARK  165  A    between atoms: _452  and  _455
REMARK  166  A    between atoms: _455  and  _456
REMARK  167  A    between atoms: _459  and  _461
REMARK  168  A    between atoms: _461  and  _462
REMARK  169  A    between atoms: _461  and  _464
REMARK  170  A    between atoms: _464  and  _465
REMARK  171  A    between atoms: _470  and  _471
REMARK  172  A    between atoms: _473  and  _475
REMARK  173  A    between atoms: _475  and  _476
REMARK  174  A    between atoms: _475  and  _478
REMARK  175  A    between atoms: _478  and  _479
REMARK  176  A    between atoms: _484  and  _486
REMARK  177  A    between atoms: _486  and  _487
REMARK  178  A    between atoms: _486  and  _489
REMARK  179  A    between atoms: _489  and  _490
REMARK  180  A    between atoms: _492  and  _494
REMARK  181  A    between atoms: _494  and  _495
REMARK  182  A    between atoms: _494  and  _497
REMARK  183  A    between atoms: _497  and  _498
REMARK  184  A    between atoms: _501  and  _503
REMARK  185  A    between atoms: _503  and  _504
REMARK  186  A    between atoms: _503  and  _506
REMARK  187  A    between atoms: _506  and  _507
REMARK  188  A    between atoms: _510  and  _512
REMARK  189  A    between atoms: _512  and  _513
REMARK  190  A    between atoms: _512  and  _515
REMARK  191  A    between atoms: _515  and  _516
REMARK  192  A    between atoms: _519  and  _521
REMARK  193  A    between atoms: _521  and  _522
REMARK  194  A    between atoms: _521  and  _524
REMARK  195  A    between atoms: _524  and  _525
REMARK  196  A    between atoms: _528  and  _530
REMARK  197  A    between atoms: _530  and  _531
REMARK  198  A    between atoms: _530  and  _533
REMARK  199  A    between atoms: _533  and  _534
REMARK  200  A    between atoms: _534  and  _535
REMARK  201  A    between atoms: _535  and  _536
REMARK  202  A    between atoms: _545  and  _547
REMARK  203  A    between atoms: _547  and  _548
REMARK  204  A    between atoms: _547  and  _550
REMARK  205  A    between atoms: _550  and  _551
REMARK  206  A    between atoms: _557  and  _559
REMARK  207  A    between atoms: _559  and  _560
REMARK  208  A    between atoms: _559  and  _562
REMARK  209  A    between atoms: _562  and  _563
REMARK  210  A    between atoms: _563  and  _564
REMARK  211  A    between atoms: _564  and  _565
REMARK  212  A    between atoms: _574  and  _576
REMARK  213  A    between atoms: _576  and  _577
REMARK  214  A    between atoms: _576  and  _579
REMARK  215  A    between atoms: _579  and  _580
REMARK  216  A    between atoms: _582  and  _584
REMARK  217  A    between atoms: _584  and  _585
REMARK  218  A    between atoms: _584  and  _587
REMARK  219  A    between atoms: _587  and  _588
REMARK  220  A    between atoms: _591  and  _593
REMARK  221  A    between atoms: _593  and  _594
REMARK  222  A    between atoms: _593  and  _596
REMARK  223  A    between atoms: _596  and  _597
REMARK  224  A    between atoms: _601  and  _602
REMARK  225  A    between atoms: _607  and  _609
REMARK  226  A    between atoms: _609  and  _610
REMARK  227  A    between atoms: _609  and  _612
REMARK  228  A    between atoms: _612  and  _613
REMARK  229  A    between atoms: _618  and  _620
REMARK  230  A    between atoms: _620  and  _621
REMARK  231  A    between atoms: _620  and  _623
REMARK  232  A    between atoms: _623  and  _624
REMARK  233  A    between atoms: _627  and  _629
REMARK  234  A    between atoms: _629  and  _630
REMARK  235  A    between atoms: _629  and  _632
REMARK  236  A    between atoms: _632  and  _633
REMARK  237  A    between atoms: _639  and  _641
REMARK  238  A    between atoms: _641  and  _642
REMARK  239  A    between atoms: _641  and  _644
REMARK  240  A    between atoms: _644  and  _645
REMARK  241  A    between atoms: _650  and  _652
REMARK  242  A    between atoms: _652  and  _653
REMARK  243  A    between atoms: _652  and  _655
REMARK  244  A    between atoms: _655  and  _656
REMARK  245  A    between atoms: _658  and  _660
REMARK  246  A    between atoms: _660  and  _661
REMARK  247  A    between atoms: _664  and  _666
REMARK  248  A    between atoms: _666  and  _667
REMARK  249  A    between atoms: _666  and  _669
REMARK  250  A    between atoms: _669  and  _670
REMARK  251  A    between atoms: _675  and  _677
REMARK  252  A    between atoms: _677  and  _678
REMARK  253  A    between atoms: _677  and  _680
REMARK  254  A    between atoms: _680  and  _681
REMARK  255  A    between atoms: _684  and  _686
REMARK  256  A    between atoms: _686  and  _687
REMARK  257  A    between atoms: _686  and  _689
REMARK  258  A    between atoms: _689  and  _690
REMARK  259  A    between atoms: _690  and  _691
REMARK  260  A    between atoms: _693  and  _695
REMARK  261  A    between atoms: _695  and  _696
REMARK  262  A    between atoms: _695  and  _698
REMARK  263  A    between atoms: _698  and  _699
REMARK  264  A    between atoms: _704  and  _705
REMARK  265  A    between atoms: _708  and  _709
REMARK  266  A    between atoms: _714  and  _716
REMARK  267  A    between atoms: _716  and  _717
REMARK  268  A    between atoms: _716  and  _719
REMARK  269  A    between atoms: _719  and  _720
REMARK                            x       y       z     vdW  Elec       q    Type
REMARK                         _______ _______ _______ _____ _____    ______ ____
ROOT
ATOM      1  O   HOH     1      45.535  36.380  22.564  0.00  0.00    +0.000 OA
ENDROOT
TORSDOF 0
REMARK  Name = ../refined-set-2016/1hfs/1hfs_pocket.pdb
REMARK  269 active torsions:
REMARK  status: ('A' for Active; 'I' for Inactive)
REMARK    1  A    between atoms: _1  and  _3
REMARK    2  A    between atoms: _3  and  _4
REMARK    3  A    between atoms: _3  and  _6
REMARK    4  A    between atoms: _6  and  _7
REMARK    5  A    between atoms: _11  and  ZN_724
REMARK    6  A    between atoms: _12  and  _14
REMARK    7  A    between atoms: _14  and  _15
REMARK    8  A    between atoms: _14  and  _17
REMARK    9  A    between atoms: _17  and  _18
REMARK   10  A    between atoms: _18  and  _20
REMARK   11  A    between atoms: _20  and  ZN_724
REMARK   12  A    between atoms: _21  and  _23
REMARK   13  A    between atoms: _23  and  _24
REMARK   14  A    between atoms: _23  and  _26
REMARK   15  A    between atoms: _26  and  _27
REMARK   16  A    between atoms: _33  and  _35
REMARK   17  A    between atoms: _35  and  _36
REMARK   18  A    between atoms: _35  and  _38
REMARK   19  A    between atoms: _38  and  _39
REMARK   20  A    between atoms: _44  and  _45
REMARK   21  A    between atoms: _48  and  _49
REMARK   22  A    between atoms: _54  and  _56
REMARK   23  A    between atoms: _56  and  _57
REMARK   24  A    between atoms: _56  and  _59
REMARK   25  A    between atoms: _59  and  _60
REMARK   26  A    between atoms: _66  and  _68
REMARK   27  A    between atoms: _68  and  _69
REMARK   28  A    between atoms: _68  and  _71
REMARK   29  A    between atoms: _71  and  _72
REMARK   30  A    between atoms: _76  and  _77
REMARK   31  A    between atoms: _82  and  _84
REMARK   32  A    between atoms: _89  and  _92
REMARK   33  A    between atoms: _92  and  _93
REMARK   34  A    between atoms: _100  and  _103
REMARK   35  A    between atoms: _101  and  _106
REMARK   36  A    between atoms: _106  and  _108
REMARK   37  A    between atoms: _108  and  _109
REMARK   38  A    between atoms: _108  and  _111
REMARK   39  A    between atoms: _111  and  _112
REMARK   40  A    between atoms: _115  and  _117
REMARK   41  A    between atoms: _117  and  _118
REMARK   42  A    between atoms: _121  and  _123
REMARK   43  A    between atoms: _123  and  _124
REMARK   44  A    between atoms: _123  and  _126
REMARK   45  A    between atoms: _126  and  _127
REMARK   46  A    between atoms: _131  and  ZN_724
REMARK   47  A    between atoms: _132  and  _134
REMARK   48  A    between atoms: _134  and  _135
REMARK   49  A    between atoms: _138  and  _140
REMARK   50  A    between atoms: _140  and  _141
REMARK   51  A    between atoms: _140  and  _143
REMARK   52  A    between atoms: _143  and  _144
REMARK   53  A    between atoms: _149  and  _150
REMARK   54  A    between atoms: _152  and  _154
REMARK   55  A    between atoms: _154  and  _155
REMARK   56  A    between atoms: _158  and  _160
REMARK   57  A    between atoms: _160  and  _161
REMARK   58  A    between atoms: _160  and  _163
REMARK   59  A    between atoms: _163  and  _164
REMARK   60  A    between atoms: _167  and  _169
REMARK   61  A    between atoms: _169  and  _170
REMARK   62  A    between atoms: _172  and  _174
REMARK   63  A    between atoms: _174  and  _175
REMARK   64  A    between atoms: _174  and  _177
REMARK   65  A    between atoms: _177  and  _178
REMARK   66  A    between atoms: _181  and  _183
REMARK   67  A    between atoms: _183  and  _184
REMARK   68  A    between atoms: _183  and  _186
REMARK   69  A    between atoms: _186  and  _187
REMARK   70  A    between atoms: _188  and  ZN_724
REMARK   71  A    between atoms: _192  and  _194
REMARK   72  A    between atoms: _194  and  _195
REMARK   73  A    between atoms: _194  and  _197
REMARK   74  A    between atoms: _197  and  _198
REMARK   75  A    between atoms: _201  and  _203
REMARK   76  A    between atoms: _203  and  _204
REMARK   77  A    between atoms: _203  and  _206
REMARK   78  A    between atoms: _206  and  _207
REMARK   79  A    between atoms: _207  and  _208
REMARK   80  A    between atoms: _211  and  _213
REMARK   81  A    between atoms: _213  and  _214
REMARK   82  A    between atoms: _213  and  _216
REMARK   83  A    between atoms: _216  and  _217
REMARK   84  A    between atoms: _227  and  _229
REMARK   85  A    between atoms: _229  and  _230
REMARK   86  A    between atoms: _232  and  _234
REMARK   87  A    between atoms: _234  and  _235
REMARK   88  A    between atoms: _234  and  _237
REMARK   89  A    between atoms: _237  and  _238
REMARK   90  A    between atoms: _241  and  _243
REMARK   91  A    between atoms: _243  and  _244
REMARK   92  A    between atoms: _243  and  _246
REMARK   93  A    between atoms: _246  and  _247
REMARK   94  A    between atoms: _252  and  _254
REMARK   95  A    between atoms: _254  and  _255
REMARK   96  A    between atoms: _254  and  _257
REMARK   97  A    between atoms: _257  and  _258
REMARK   98  A    between atoms: _261  and  _263
REMARK   99  A    between atoms: _263  and  _264
REMARK  100  A    between atoms: _263  and  _266
REMARK  101  A    between atoms: _266  and  _267
REMARK  102  A    between atoms: _273  and  _275
REMARK  103  A    between atoms: _275  and  _276
REMARK  104  A    between atoms: _275  and  _278
REMARK  105  A    between atoms: _278  and  _279
REMARK  106  A    between atoms: _282  and  _284
REMARK  107  A    between atoms: _284  and  _285
REMARK  108  A    between atoms: _284  and  _287
REMARK  109  A    between atoms: _290  and  _292
REMARK  110  A    between atoms: _292  and  _293
REMARK  111  A    between atoms: _296  and  _298
REMARK  112  A    between atoms: _298  and  _299
REMARK  113  A    between atoms: _302  and  _304
REMARK  114  A    between atoms: _315  and  _318
REMARK  115  A    between atoms: _318  and  _319
REMARK  116  A    between atoms: _319  and  _320
REMARK  117  A    between atoms: _325  and  _328
REMARK  118  A    between atoms: _328  and  _329
REMARK  119  A    between atoms: _339  and  _340
REMARK  120  A    between atoms: _348  and  _350
REMARK  121  A    between atoms: _350  and  _351
REMARK  122  A    between atoms: _350  and  _353
REMARK  123  A    between atoms: _353  and  _354
REMARK  124  A    between atoms: _356  and  _358
REMARK  125  A    between atoms: _358  and  _359
REMARK  126  A    between atoms: _358  and  _361
REMARK  127  A    between atoms: _361  and  _362
REMARK  128  A    between atoms: _366  and  ZN_723
REMARK  129  A    between atoms: _367  and  _369
REMARK  130  A    between atoms: _369  and  _370
REMARK  131  A    between atoms: _369  and  _372
REMARK  132  A    between atoms: _372  and  _373
REMARK  133  A    between atoms: _375  and  _377
REMARK  134  A    between atoms: _377  and  _378
REMARK  135  A    between atoms: _377  and  _380
REMARK  136  A    between atoms: _380  and  _381
REMARK  137  A    between atoms: _386  and  _388
REMARK  138  A    between atoms: _388  and  _389
REMARK  139  A    between atoms: _388  and  _391
REMARK  140  A    between atoms: _391  and  _392
REMARK  141  A    between atoms: _395  and  _397
REMARK  142  A    between atoms: _397  and  _398
REMARK  143  A    between atoms: _397  and  _400
REMARK  144  A    between atoms: _400  and  _401
REMARK  145  A    between atoms: _401  and  _402
REMARK  146  A    between atoms: _405  and  _407
REMARK  147  A    between atoms: _407  and  _408
REMARK  148  A    between atoms: _411  and  _413
REMARK  149  A    between atoms: _413  and  _414
REMARK  150  A    between atoms: _413  and  _416
REMARK  151  A    between atoms: _416  and  _417
REMARK  152  A    between atoms: _420  and  _422
REMARK  153  A    between atoms: _422  and  _423
REMARK  154  A    between atoms: _422  and  _425
REMARK  155  A    between atoms: _425  and  _426
REMARK  156  A    between atoms: _426  and  _427
REMARK  157  A    between atoms: _429  and  _431
REMARK  158  A    between atoms: _431  and  _432
REMARK  159  A    between atoms: _431  and  _434
REMARK  160  A    between atoms: _434  and  _435
REMARK  161  A    between atoms: _440  and  _441
REMARK  162  A    between atoms: _444  and  _445
REMARK  163  A    between atoms: _450  and  _452
REMARK  164  A    between atoms: _452  and  _453
REMARK  165  A    between atoms: _452  and  _455
REMARK  166  A    between atoms: _455  and  _456
REMARK  167  A    between atoms: _459  and  _461
REMARK  168  A    between atoms: _461  and  _462
REMARK  169  A    between atoms: _461  and  _464
REMARK  170  A    between atoms: _464  and  _465
REMARK  171  A    between atoms: _470  and  _471
REMARK  172  A    between atoms: _473  and  _475
REMARK  173  A    between atoms: _475  and  _476
REMARK  174  A    between atoms: _475  and  _478
REMARK  175  A    between atoms: _478  and  _479
REMARK  176  A    between atoms: _484  and  _486
REMARK  177  A    between atoms: _486  and  _487
REMARK  178  A    between atoms: _486  and  _489
REMARK  179  A    between atoms: _489  and  _490
REMARK  180  A    between atoms: _492  and  _494
REMARK  181  A    between atoms: _494  and  _495
REMARK  182  A    between atoms: _494  and  _497
REMARK  183  A    between atoms: _497  and  _498
REMARK  184  A    between atoms: _501  and  _503
REMARK  185  A    between atoms: _503  and  _504
REMARK  186  A    between atoms: _503  and  _506
REMARK  187  A    between atoms: _506  and  _507
REMARK  188  A    between atoms: _510  and  _512
REMARK  189  A    between atoms: _512  and  _513
REMARK  190  A    between atoms: _512  and  _515
REMARK  191  A    between atoms: _515  and  _516
REMARK  192  A    between atoms: _519  and  _521
REMARK  193  A    between atoms: _521  and  _522
REMARK  194  A    between atoms: _521  and  _524
REMARK  195  A    between atoms: _524  and  _525
REMARK  196  A    between atoms: _528  and  _530
REMARK  197  A    between atoms: _530  and  _531
REMARK  198  A    between atoms: _530  and  _533
REMARK  199  A    between atoms: _533  and  _534
REMARK  200  A    between atoms: _534  and  _535
REMARK  201  A    between atoms: _535  and  _536
REMARK  202  A    between atoms: _545  and  _547
REMARK  203  A    between atoms: _547  and  _548
REMARK  204  A    between atoms: _547  and  _550
REMARK  205  A    between atoms: _550  and  _551
REMARK  206  A    between atoms: _557  and  _559
REMARK  207  A    between atoms: _559  and  _560
REMARK  208  A    between atoms: _559  and  _562
REMARK  209  A    between atoms: _562  and  _563
REMARK  210  A    between atoms: _563  and  _564
REMARK  211  A    between atoms: _564  and  _565
REMARK  212  A    between atoms: _574  and  _576
REMARK  213  A    between atoms: _576  and  _577
REMARK  214  A    between atoms: _576  and  _579
REMARK  215  A    between atoms: _579  and  _580
REMARK  216  A    between atoms: _582  and  _584
REMARK  217  A    between atoms: _584  and  _585
REMARK  218  A    between atoms: _584  and  _587
REMARK  219  A    between atoms: _587  and  _588
REMARK  220  A    between atoms: _591  and  _593
REMARK  221  A    between atoms: _593  and  _594
REMARK  222  A    between atoms: _593  and  _596
REMARK  223  A    between atoms: _596  and  _597
REMARK  224  A    between atoms: _601  and  _602
REMARK  225  A    between atoms: _607  and  _609
REMARK  226  A    between atoms: _609  and  _610
REMARK  227  A    between atoms: _609  and  _612
REMARK  228  A    between atoms: _612  and  _613
REMARK  229  A    between atoms: _618  and  _620
REMARK  230  A    between atoms: _620  and  _621
REMARK  231  A    between atoms: _620  and  _623
REMARK  232  A    between atoms: _623  and  _624
REMARK  233  A    between atoms: _627  and  _629
REMARK  234  A    between atoms: _629  and  _630
REMARK  235  A    between atoms: _629  and  _632
REMARK  236  A    between atoms: _632  and  _633
REMARK  237  A    between atoms: _639  and  _641
REMARK  238  A    between atoms: _641  and  _642
REMARK  239  A    between atoms: _641  and  _644
REMARK  240  A    between atoms: _644  and  _645
REMARK  241  A    between atoms: _650  and  _652
REMARK  242  A    between atoms: _652  and  _653
REMARK  243  A    between atoms: _652  and  _655
REMARK  244  A    between atoms: _655  and  _656
REMARK  245  A    between atoms: _658  and  _660
REMARK  246  A    between atoms: _660  and  _661
REMARK  247  A    between atoms: _664  and  _666
REMARK  248  A    between atoms: _666  and  _667
REMARK  249  A    between atoms: _666  and  _669
REMARK  250  A    between atoms: _669  and  _670
REMARK  251  A    between atoms: _675  and  _677
REMARK  252  A    between atoms: _677  and  _678
REMARK  253  A    between atoms: _677  and  _680
REMARK  254  A    between atoms: _680  and  _681
REMARK  255  A    between atoms: _684  and  _686
REMARK  256  A    between atoms: _686  and  _687
REMARK  257  A    between atoms: _686  and  _689
REMARK  258  A    between atoms: _689  and  _690
REMARK  259  A    between atoms: _690  and  _691
REMARK  260  A    between atoms: _693  and  _695
REMARK  261  A    between atoms: _695  and  _696
REMARK  262  A    between atoms: _695  and  _698
REMARK  263  A    between atoms: _698  and  _699
REMARK  264  A    between atoms: _704  and  _705
REMARK  265  A    between atoms: _708  and  _709
REMARK  266  A    between atoms: _714  and  _716
REMARK  267  A    between atoms: _716  and  _717
REMARK  268  A    between atoms: _716  and  _719
REMARK  269  A    between atoms: _719  and  _720
REMARK                            x       y       z     vdW  Elec       q    Type
REMARK                         _______ _______ _______ _____ _____    ______ ____
ROOT
ATOM      1  O   HOH     1      47.059  31.801  33.098  0.00  0.00    +0.000 OA
ENDROOT
TORSDOF 0
REMARK  Name = ../refined-set-2016/1hfs/1hfs_pocket.pdb
REMARK  269 active torsions:
REMARK  status: ('A' for Active; 'I' for Inactive)
REMARK    1  A    between atoms: _1  and  _3
REMARK    2  A    between atoms: _3  and  _4
REMARK    3  A    between atoms: _3  and  _6
REMARK    4  A    between atoms: _6  and  _7
REMARK    5  A    between atoms: _11  and  ZN_724
REMARK    6  A    between atoms: _12  and  _14
REMARK    7  A    between atoms: _14  and  _15
REMARK    8  A    between atoms: _14  and  _17
REMARK    9  A    between atoms: _17  and  _18
REMARK   10  A    between atoms: _18  and  _20
REMARK   11  A    between atoms: _20  and  ZN_724
REMARK   12  A    between atoms: _21  and  _23
REMARK   13  A    between atoms: _23  and  _24
REMARK   14  A    between atoms: _23  and  _26
REMARK   15  A    between atoms: _26  and  _27
REMARK   16  A    between atoms: _33  and  _35
REMARK   17  A    between atoms: _35  and  _36
REMARK   18  A    between atoms: _35  and  _38
REMARK   19  A    between atoms: _38  and  _39
REMARK   20  A    between atoms: _44  and  _45
REMARK   21  A    between atoms: _48  and  _49
REMARK   22  A    between atoms: _54  and  _56
REMARK   23  A    between atoms: _56  and  _57
REMARK   24  A    between atoms: _56  and  _59
REMARK   25  A    between atoms: _59  and  _60
REMARK   26  A    between atoms: _66  and  _68
REMARK   27  A    between atoms: _68  and  _69
REMARK   28  A    between atoms: _68  and  _71
REMARK   29  A    between atoms: _71  and  _72
REMARK   30  A    between atoms: _76  and  _77
REMARK   31  A    between atoms: _82  and  _84
REMARK   32  A    between atoms: _89  and  _92
REMARK   33  A    between atoms: _92  and  _93
REMARK   34  A    between atoms: _100  and  _103
REMARK   35  A    between atoms: _101  and  _106
REMARK   36  A    between atoms: _106  and  _108
REMARK   37  A    between atoms: _108  and  _109
REMARK   38  A    between atoms: _108  and  _111
REMARK   39  A    between atoms: _111  and  _112
REMARK   40  A    between atoms: _115  and  _117
REMARK   41  A    between atoms: _117  and  _118
REMARK   42  A    between atoms: _121  and  _123
REMARK   43  A    between atoms: _123  and  _124
REMARK   44  A    between atoms: _123  and  _126
REMARK   45  A    between atoms: _126  and  _127
REMARK   46  A    between atoms: _131  and  ZN_724
REMARK   47  A    between atoms: _132  and  _134
REMARK   48  A    between atoms: _134  and  _135
REMARK   49  A    between atoms: _138  and  _140
REMARK   50  A    between atoms: _140  and  _141
REMARK   51  A    between atoms: _140  and  _143
REMARK   52  A    between atoms: _143  and  _144
REMARK   53  A    between atoms: _149  and  _150
REMARK   54  A    between atoms: _152  and  _154
REMARK   55  A    between atoms: _154  and  _155
REMARK   56  A    between atoms: _158  and  _160
REMARK   57  A    between atoms: _160  and  _161
REMARK   58  A    between atoms: _160  and  _163
REMARK   59  A    between atoms: _163  and  _164
REMARK   60  A    between atoms: _167  and  _169
REMARK   61  A    between atoms: _169  and  _170
REMARK   62  A    between atoms: _172  and  _174
REMARK   63  A    between atoms: _174  and  _175
REMARK   64  A    between atoms: _174  and  _177
REMARK   65  A    between atoms: _177  and  _178
REMARK   66  A    between atoms: _181  and  _183
REMARK   67  A    between atoms: _183  and  _184
REMARK   68  A    between atoms: _183  and  _186
REMARK   69  A    between atoms: _186  and  _187
REMARK   70  A    between atoms: _188  and  ZN_724
REMARK   71  A    between atoms: _192  and  _194
REMARK   72  A    between atoms: _194  and  _195
REMARK   73  A    between atoms: _194  and  _197
REMARK   74  A    between atoms: _197  and  _198
REMARK   75  A    between atoms: _201  and  _203
REMARK   76  A    between atoms: _203  and  _204
REMARK   77  A    between atoms: _203  and  _206
REMARK   78  A    between atoms: _206  and  _207
REMARK   79  A    between atoms: _207  and  _208
REMARK   80  A    between atoms: _211  and  _213
REMARK   81  A    between atoms: _213  and  _214
REMARK   82  A    between atoms: _213  and  _216
REMARK   83  A    between atoms: _216  and  _217
REMARK   84  A    between atoms: _227  and  _229
REMARK   85  A    between atoms: _229  and  _230
REMARK   86  A    between atoms: _232  and  _234
REMARK   87  A    between atoms: _234  and  _235
REMARK   88  A    between atoms: _234  and  _237
REMARK   89  A    between atoms: _237  and  _238
REMARK   90  A    between atoms: _241  and  _243
REMARK   91  A    between atoms: _243  and  _244
REMARK   92  A    between atoms: _243  and  _246
REMARK   93  A    between atoms: _246  and  _247
REMARK   94  A    between atoms: _252  and  _254
REMARK   95  A    between atoms: _254  and  _255
REMARK   96  A    between atoms: _254  and  _257
REMARK   97  A    between atoms: _257  and  _258
REMARK   98  A    between atoms: _261  and  _263
REMARK   99  A    between atoms: _263  and  _264
REMARK  100  A    between atoms: _263  and  _266
REMARK  101  A    between atoms: _266  and  _267
REMARK  102  A    between atoms: _273  and  _275
REMARK  103  A    between atoms: _275  and  _276
REMARK  104  A    between atoms: _275  and  _278
REMARK  105  A    between atoms: _278  and  _279
REMARK  106  A    between atoms: _282  and  _284
REMARK  107  A    between atoms: _284  and  _285
REMARK  108  A    between atoms: _284  and  _287
REMARK  109  A    between atoms: _290  and  _292
REMARK  110  A    between atoms: _292  and  _293
REMARK  111  A    between atoms: _296  and  _298
REMARK  112  A    between atoms: _298  and  _299
REMARK  113  A    between atoms: _302  and  _304
REMARK  114  A    between atoms: _315  and  _318
REMARK  115  A    between atoms: _318  and  _319
REMARK  116  A    between atoms: _319  and  _320
REMARK  117  A    between atoms: _325  and  _328
REMARK  118  A    between atoms: _328  and  _329
REMARK  119  A    between atoms: _339  and  _340
REMARK  120  A    between atoms: _348  and  _350
REMARK  121  A    between atoms: _350  and  _351
REMARK  122  A    between atoms: _350  and  _353
REMARK  123  A    between atoms: _353  and  _354
REMARK  124  A    between atoms: _356  and  _358
REMARK  125  A    between atoms: _358  and  _359
REMARK  126  A    between atoms: _358  and  _361
REMARK  127  A    between atoms: _361  and  _362
REMARK  128  A    between atoms: _366  and  ZN_723
REMARK  129  A    between atoms: _367  and  _369
REMARK  130  A    between atoms: _369  and  _370
REMARK  131  A    between atoms: _369  and  _372
REMARK  132  A    between atoms: _372  and  _373
REMARK  133  A    between atoms: _375  and  _377
REMARK  134  A    between atoms: _377  and  _378
REMARK  135  A    between atoms: _377  and  _380
REMARK  136  A    between atoms: _380  and  _381
REMARK  137  A    between atoms: _386  and  _388
REMARK  138  A    between atoms: _388  and  _389
REMARK  139  A    between atoms: _388  and  _391
REMARK  140  A    between atoms: _391  and  _392
REMARK  141  A    between atoms: _395  and  _397
REMARK  142  A    between atoms: _397  and  _398
REMARK  143  A    between atoms: _397  and  _400
REMARK  144  A    between atoms: _400  and  _401
REMARK  145  A    between atoms: _401  and  _402
REMARK  146  A    between atoms: _405  and  _407
REMARK  147  A    between atoms: _407  and  _408
REMARK  148  A    between atoms: _411  and  _413
REMARK  149  A    between atoms: _413  and  _414
REMARK  150  A    between atoms: _413  and  _416
REMARK  151  A    between atoms: _416  and  _417
REMARK  152  A    between atoms: _420  and  _422
REMARK  153  A    between atoms: _422  and  _423
REMARK  154  A    between atoms: _422  and  _425
REMARK  155  A    between atoms: _425  and  _426
REMARK  156  A    between atoms: _426  and  _427
REMARK  157  A    between atoms: _429  and  _431
REMARK  158  A    between atoms: _431  and  _432
REMARK  159  A    between atoms: _431  and  _434
REMARK  160  A    between atoms: _434  and  _435
REMARK  161  A    between atoms: _440  and  _441
REMARK  162  A    between atoms: _444  and  _445
REMARK  163  A    between atoms: _450  and  _452
REMARK  164  A    between atoms: _452  and  _453
REMARK  165  A    between atoms: _452  and  _455
REMARK  166  A    between atoms: _455  and  _456
REMARK  167  A    between atoms: _459  and  _461
REMARK  168  A    between atoms: _461  and  _462
REMARK  169  A    between atoms: _461  and  _464
REMARK  170  A    between atoms: _464  and  _465
REMARK  171  A    between atoms: _470  and  _471
REMARK  172  A    between atoms: _473  and  _475
REMARK  173  A    between atoms: _475  and  _476
REMARK  174  A    between atoms: _475  and  _478
REMARK  175  A    between atoms: _478  and  _479
REMARK  176  A    between atoms: _484  and  _486
REMARK  177  A    between atoms: _486  and  _487
REMARK  178  A    between atoms: _486  and  _489
REMARK  179  A    between atoms: _489  and  _490
REMARK  180  A    between atoms: _492  and  _494
REMARK  181  A    between atoms: _494  and  _495
REMARK  182  A    between atoms: _494  and  _497
REMARK  183  A    between atoms: _497  and  _498
REMARK  184  A    between atoms: _501  and  _503
REMARK  185  A    between atoms: _503  and  _504
REMARK  186  A    between atoms: _503  and  _506
REMARK  187  A    between atoms: _506  and  _507
REMARK  188  A    between atoms: _510  and  _512
REMARK  189  A    between atoms: _512  and  _513
REMARK  190  A    between atoms: _512  and  _515
REMARK  191  A    between atoms: _515  and  _516
REMARK  192  A    between atoms: _519  and  _521
REMARK  193  A    between atoms: _521  and  _522
REMARK  194  A    between atoms: _521  and  _524
REMARK  195  A    between atoms: _524  and  _525
REMARK  196  A    between atoms: _528  and  _530
REMARK  197  A    between atoms: _530  and  _531
REMARK  198  A    between atoms: _530  and  _533
REMARK  199  A    between atoms: _533  and  _534
REMARK  200  A    between atoms: _534  and  _535
REMARK  201  A    between atoms: _535  and  _536
REMARK  202  A    between atoms: _545  and  _547
REMARK  203  A    between atoms: _547  and  _548
REMARK  204  A    between atoms: _547  and  _550
REMARK  205  A    between atoms: _550  and  _551
REMARK  206  A    between atoms: _557  and  _559
REMARK  207  A    between atoms: _559  and  _560
REMARK  208  A    between atoms: _559  and  _562
REMARK  209  A    between atoms: _562  and  _563
REMARK  210  A    between atoms: _563  and  _564
REMARK  211  A    between atoms: _564  and  _565
REMARK  212  A    between atoms: _574  and  _576
REMARK  213  A    between atoms: _576  and  _577
REMARK  214  A    between atoms: _576  and  _579
REMARK  215  A    between atoms: _579  and  _580
REMARK  216  A    between atoms: _582  and  _584
REMARK  217  A    between atoms: _584  and  _585
REMARK  218  A    between atoms: _584  and  _587
REMARK  219  A    between atoms: _587  and  _588
REMARK  220  A    between atoms: _591  and  _593
REMARK  221  A    between atoms: _593  and  _594
REMARK  222  A    between atoms: _593  and  _596
REMARK  223  A    between atoms: _596  and  _597
REMARK  224  A    between atoms: _601  and  _602
REMARK  225  A    between atoms: _607  and  _609
REMARK  226  A    between atoms: _609  and  _610
REMARK  227  A    between atoms: _609  and  _612
REMARK  228  A    between atoms: _612  and  _613
REMARK  229  A    between atoms: _618  and  _620
REMARK  230  A    between atoms: _620  and  _621
REMARK  231  A    between atoms: _620  and  _623
REMARK  232  A    between atoms: _623  and  _624
REMARK  233  A    between atoms: _627  and  _629
REMARK  234  A    between atoms: _629  and  _630
REMARK  235  A    between atoms: _629  and  _632
REMARK  236  A    between atoms: _632  and  _633
REMARK  237  A    between atoms: _639  and  _641
REMARK  238  A    between atoms: _641  and  _642
REMARK  239  A    between atoms: _641  and  _644
REMARK  240  A    between atoms: _644  and  _645
REMARK  241  A    between atoms: _650  and  _652
REMARK  242  A    between atoms: _652  and  _653
REMARK  243  A    between atoms: _652  and  _655
REMARK  244  A    between atoms: _655  and  _656
REMARK  245  A    between atoms: _658  and  _660
REMARK  246  A    between atoms: _660  and  _661
REMARK  247  A    between atoms: _664  and  _666
REMARK  248  A    between atoms: _666  and  _667
REMARK  249  A    between atoms: _666  and  _669
REMARK  250  A    between atoms: _669  and  _670
REMARK  251  A    between atoms: _675  and  _677
REMARK  252  A    between atoms: _677  and  _678
REMARK  253  A    between atoms: _677  and  _680
REMARK  254  A    between atoms: _680  and  _681
REMARK  255  A    between atoms: _684  and  _686
REMARK  256  A    between atoms: _686  and  _687
REMARK  257  A    between atoms: _686  and  _689
REMARK  258  A    between atoms: _689  and  _690
REMARK  259  A    between atoms: _690  and  _691
REMARK  260  A    between atoms: _693  and  _695
REMARK  261  A    between atoms: _695  and  _696
REMARK  262  A    between atoms: _695  and  _698
REMARK  263  A    between atoms: _698  and  _699
REMARK  264  A    between atoms: _704  and  _705
REMARK  265  A    between atoms: _708  and  _709
REMARK  266  A    between atoms: _714  and  _716
REMARK  267  A    between atoms: _716  and  _717
REMARK  268  A    between atoms: _716  and  _719
REMARK  269  A    between atoms: _719  and  _720
REMARK                            x       y       z     vdW  Elec       q    Type
REMARK                         _______ _______ _______ _____ _____    ______ ____
ROOT
ATOM      1  O   HOH     1      43.815  36.329  32.265  0.00  0.00    +0.000 OA
ENDROOT
TORSDOF 0
REMARK  Name = ../refined-set-2016/1hfs/1hfs_pocket.pdb
REMARK  269 active torsions:
REMARK  status: ('A' for Active; 'I' for Inactive)
REMARK    1  A    between atoms: _1  and  _3
REMARK    2  A    between atoms: _3  and  _4
REMARK    3  A    between atoms: _3  and  _6
REMARK    4  A    between atoms: _6  and  _7
REMARK    5  A    between atoms: _11  and  ZN_724
REMARK    6  A    between atoms: _12  and  _14
REMARK    7  A    between atoms: _14  and  _15
REMARK    8  A    between atoms: _14  and  _17
REMARK    9  A    between atoms: _17  and  _18
REMARK   10  A    between atoms: _18  and  _20
REMARK   11  A    between atoms: _20  and  ZN_724
REMARK   12  A    between atoms: _21  and  _23
REMARK   13  A    between atoms: _23  and  _24
REMARK   14  A    between atoms: _23  and  _26
REMARK   15  A    between atoms: _26  and  _27
REMARK   16  A    between atoms: _33  and  _35
REMARK   17  A    between atoms: _35  and  _36
REMARK   18  A    between atoms: _35  and  _38
REMARK   19  A    between atoms: _38  and  _39
REMARK   20  A    between atoms: _44  and  _45
REMARK   21  A    between atoms: _48  and  _49
REMARK   22  A    between atoms: _54  and  _56
REMARK   23  A    between atoms: _56  and  _57
REMARK   24  A    between atoms: _56  and  _59
REMARK   25  A    between atoms: _59  and  _60
REMARK   26  A    between atoms: _66  and  _68
REMARK   27  A    between atoms: _68  and  _69
REMARK   28  A    between atoms: _68  and  _71
REMARK   29  A    between atoms: _71  and  _72
REMARK   30  A    between atoms: _76  and  _77
REMARK   31  A    between atoms: _82  and  _84
REMARK   32  A    between atoms: _89  and  _92
REMARK   33  A    between atoms: _92  and  _93
REMARK   34  A    between atoms: _100  and  _103
REMARK   35  A    between atoms: _101  and  _106
REMARK   36  A    between atoms: _106  and  _108
REMARK   37  A    between atoms: _108  and  _109
REMARK   38  A    between atoms: _108  and  _111
REMARK   39  A    between atoms: _111  and  _112
REMARK   40  A    between atoms: _115  and  _117
REMARK   41  A    between atoms: _117  and  _118
REMARK   42  A    between atoms: _121  and  _123
REMARK   43  A    between atoms: _123  and  _124
REMARK   44  A    between atoms: _123  and  _126
REMARK   45  A    between atoms: _126  and  _127
REMARK   46  A    between atoms: _131  and  ZN_724
REMARK   47  A    between atoms: _132  and  _134
REMARK   48  A    between atoms: _134  and  _135
REMARK   49  A    between atoms: _138  and  _140
REMARK   50  A    between atoms: _140  and  _141
REMARK   51  A    between atoms: _140  and  _143
REMARK   52  A    between atoms: _143  and  _144
REMARK   53  A    between atoms: _149  and  _150
REMARK   54  A    between atoms: _152  and  _154
REMARK   55  A    between atoms: _154  and  _155
REMARK   56  A    between atoms: _158  and  _160
REMARK   57  A    between atoms: _160  and  _161
REMARK   58  A    between atoms: _160  and  _163
REMARK   59  A    between atoms: _163  and  _164
REMARK   60  A    between atoms: _167  and  _169
REMARK   61  A    between atoms: _169  and  _170
REMARK   62  A    between atoms: _172  and  _174
REMARK   63  A    between atoms: _174  and  _175
REMARK   64  A    between atoms: _174  and  _177
REMARK   65  A    between atoms: _177  and  _178
REMARK   66  A    between atoms: _181  and  _183
REMARK   67  A    between atoms: _183  and  _184
REMARK   68  A    between atoms: _183  and  _186
REMARK   69  A    between atoms: _186  and  _187
REMARK   70  A    between atoms: _188  and  ZN_724
REMARK   71  A    between atoms: _192  and  _194
REMARK   72  A    between atoms: _194  and  _195
REMARK   73  A    between atoms: _194  and  _197
REMARK   74  A    between atoms: _197  and  _198
REMARK   75  A    between atoms: _201  and  _203
REMARK   76  A    between atoms: _203  and  _204
REMARK   77  A    between atoms: _203  and  _206
REMARK   78  A    between atoms: _206  and  _207
REMARK   79  A    between atoms: _207  and  _208
REMARK   80  A    between atoms: _211  and  _213
REMARK   81  A    between atoms: _213  and  _214
REMARK   82  A    between atoms: _213  and  _216
REMARK   83  A    between atoms: _216  and  _217
REMARK   84  A    between atoms: _227  and  _229
REMARK   85  A    between atoms: _229  and  _230
REMARK   86  A    between atoms: _232  and  _234
REMARK   87  A    between atoms: _234  and  _235
REMARK   88  A    between atoms: _234  and  _237
REMARK   89  A    between atoms: _237  and  _238
REMARK   90  A    between atoms: _241  and  _243
REMARK   91  A    between atoms: _243  and  _244
REMARK   92  A    between atoms: _243  and  _246
REMARK   93  A    between atoms: _246  and  _247
REMARK   94  A    between atoms: _252  and  _254
REMARK   95  A    between atoms: _254  and  _255
REMARK   96  A    between atoms: _254  and  _257
REMARK   97  A    between atoms: _257  and  _258
REMARK   98  A    between atoms: _261  and  _263
REMARK   99  A    between atoms: _263  and  _264
REMARK  100  A    between atoms: _263  and  _266
REMARK  101  A    between atoms: _266  and  _267
REMARK  102  A    between atoms: _273  and  _275
REMARK  103  A    between atoms: _275  and  _276
REMARK  104  A    between atoms: _275  and  _278
REMARK  105  A    between atoms: _278  and  _279
REMARK  106  A    between atoms: _282  and  _284
REMARK  107  A    between atoms: _284  and  _285
REMARK  108  A    between atoms: _284  and  _287
REMARK  109  A    between atoms: _290  and  _292
REMARK  110  A    between atoms: _292  and  _293
REMARK  111  A    between atoms: _296  and  _298
REMARK  112  A    between atoms: _298  and  _299
REMARK  113  A    between atoms: _302  and  _304
REMARK  114  A    between atoms: _315  and  _318
REMARK  115  A    between atoms: _318  and  _319
REMARK  116  A    between atoms: _319  and  _320
REMARK  117  A    between atoms: _325  and  _328
REMARK  118  A    between atoms: _328  and  _329
REMARK  119  A    between atoms: _339  and  _340
REMARK  120  A    between atoms: _348  and  _350
REMARK  121  A    between atoms: _350  and  _351
REMARK  122  A    between atoms: _350  and  _353
REMARK  123  A    between atoms: _353  and  _354
REMARK  124  A    between atoms: _356  and  _358
REMARK  125  A    between atoms: _358  and  _359
REMARK  126  A    between atoms: _358  and  _361
REMARK  127  A    between atoms: _361  and  _362
REMARK  128  A    between atoms: _366  and  ZN_723
REMARK  129  A    between atoms: _367  and  _369
REMARK  130  A    between atoms: _369  and  _370
REMARK  131  A    between atoms: _369  and  _372
REMARK  132  A    between atoms: _372  and  _373
REMARK  133  A    between atoms: _375  and  _377
REMARK  134  A    between atoms: _377  and  _378
REMARK  135  A    between atoms: _377  and  _380
REMARK  136  A    between atoms: _380  and  _381
REMARK  137  A    between atoms: _386  and  _388
REMARK  138  A    between atoms: _388  and  _389
REMARK  139  A    between atoms: _388  and  _391
REMARK  140  A    between atoms: _391  and  _392
REMARK  141  A    between atoms: _395  and  _397
REMARK  142  A    between atoms: _397  and  _398
REMARK  143  A    between atoms: _397  and  _400
REMARK  144  A    between atoms: _400  and  _401
REMARK  145  A    between atoms: _401  and  _402
REMARK  146  A    between atoms: _405  and  _407
REMARK  147  A    between atoms: _407  and  _408
REMARK  148  A    between atoms: _411  and  _413
REMARK  149  A    between atoms: _413  and  _414
REMARK  150  A    between atoms: _413  and  _416
REMARK  151  A    between atoms: _416  and  _417
REMARK  152  A    between atoms: _420  and  _422
REMARK  153  A    between atoms: _422  and  _423
REMARK  154  A    between atoms: _422  and  _425
REMARK  155  A    between atoms: _425  and  _426
REMARK  156  A    between atoms: _426  and  _427
REMARK  157  A    between atoms: _429  and  _431
REMARK  158  A    between atoms: _431  and  _432
REMARK  159  A    between atoms: _431  and  _434
REMARK  160  A    between atoms: _434  and  _435
REMARK  161  A    between atoms: _440  and  _441
REMARK  162  A    between atoms: _444  and  _445
REMARK  163  A    between atoms: _450  and  _452
REMARK  164  A    between atoms: _452  and  _453
REMARK  165  A    between atoms: _452  and  _455
REMARK  166  A    between atoms: _455  and  _456
REMARK  167  A    between atoms: _459  and  _461
REMARK  168  A    between atoms: _461  and  _462
REMARK  169  A    between atoms: _461  and  _464
REMARK  170  A    between atoms: _464  and  _465
REMARK  171  A    between atoms: _470  and  _471
REMARK  172  A    between atoms: _473  and  _475
REMARK  173  A    between atoms: _475  and  _476
REMARK  174  A    between atoms: _475  and  _478
REMARK  175  A    between atoms: _478  and  _479
REMARK  176  A    between atoms: _484  and  _486
REMARK  177  A    between atoms: _486  and  _487
REMARK  178  A    between atoms: _486  and  _489
REMARK  179  A    between atoms: _489  and  _490
REMARK  180  A    between atoms: _492  and  _494
REMARK  181  A    between atoms: _494  and  _495
REMARK  182  A    between atoms: _494  and  _497
REMARK  183  A    between atoms: _497  and  _498
REMARK  184  A    between atoms: _501  and  _503
REMARK  185  A    between atoms: _503  and  _504
REMARK  186  A    between atoms: _503  and  _506
REMARK  187  A    between atoms: _506  and  _507
REMARK  188  A    between atoms: _510  and  _512
REMARK  189  A    between atoms: _512  and  _513
REMARK  190  A    between atoms: _512  and  _515
REMARK  191  A    between atoms: _515  and  _516
REMARK  192  A    between atoms: _519  and  _521
REMARK  193  A    between atoms: _521  and  _522
REMARK  194  A    between atoms: _521  and  _524
REMARK  195  A    between atoms: _524  and  _525
REMARK  196  A    between atoms: _528  and  _530
REMARK  197  A    between atoms: _530  and  _531
REMARK  198  A    between atoms: _530  and  _533
REMARK  199  A    between atoms: _533  and  _534
REMARK  200  A    between atoms: _534  and  _535
REMARK  201  A    between atoms: _535  and  _536
REMARK  202  A    between atoms: _545  and  _547
REMARK  203  A    between atoms: _547  and  _548
REMARK  204  A    between atoms: _547  and  _550
REMARK  205  A    between atoms: _550  and  _551
REMARK  206  A    between atoms: _557  and  _559
REMARK  207  A    between atoms: _559  and  _560
REMARK  208  A    between atoms: _559  and  _562
REMARK  209  A    between atoms: _562  and  _563
REMARK  210  A    between atoms: _563  and  _564
REMARK  211  A    between atoms: _564  and  _565
REMARK  212  A    between atoms: _574  and  _576
REMARK  213  A    between atoms: _576  and  _577
REMARK  214  A    between atoms: _576  and  _579
REMARK  215  A    between atoms: _579  and  _580
REMARK  216  A    between atoms: _582  and  _584
REMARK  217  A    between atoms: _584  and  _585
REMARK  218  A    between atoms: _584  and  _587
REMARK  219  A    between atoms: _587  and  _588
REMARK  220  A    between atoms: _591  and  _593
REMARK  221  A    between atoms: _593  and  _594
REMARK  222  A    between atoms: _593  and  _596
REMARK  223  A    between atoms: _596  and  _597
REMARK  224  A    between atoms: _601  and  _602
REMARK  225  A    between atoms: _607  and  _609
REMARK  226  A    between atoms: _609  and  _610
REMARK  227  A    between atoms: _609  and  _612
REMARK  228  A    between atoms: _612  and  _613
REMARK  229  A    between atoms: _618  and  _620
REMARK  230  A    between atoms: _620  and  _621
REMARK  231  A    between atoms: _620  and  _623
REMARK  232  A    between atoms: _623  and  _624
REMARK  233  A    between atoms: _627  and  _629
REMARK  234  A    between atoms: _629  and  _630
REMARK  235  A    between atoms: _629  and  _632
REMARK  236  A    between atoms: _632  and  _633
REMARK  237  A    between atoms: _639  and  _641
REMARK  238  A    between atoms: _641  and  _642
REMARK  239  A    between atoms: _641  and  _644
REMARK  240  A    between atoms: _644  and  _645
REMARK  241  A    between atoms: _650  and  _652
REMARK  242  A    between atoms: _652  and  _653
REMARK  243  A    between atoms: _652  and  _655
REMARK  244  A    between atoms: _655  and  _656
REMARK  245  A    between atoms: _658  and  _660
REMARK  246  A    between atoms: _660  and  _661
REMARK  247  A    between atoms: _664  and  _666
REMARK  248  A    between atoms: _666  and  _667
REMARK  249  A    between atoms: _666  and  _669
REMARK  250  A    between atoms: _669  and  _670
REMARK  251  A    between atoms: _675  and  _677
REMARK  252  A    between atoms: _677  and  _678
REMARK  253  A    between atoms: _677  and  _680
REMARK  254  A    between atoms: _680  and  _681
REMARK  255  A    between atoms: _684  and  _686
REMARK  256  A    between atoms: _686  and  _687
REMARK  257  A    between atoms: _686  and  _689
REMARK  258  A    between atoms: _689  and  _690
REMARK  259  A    between atoms: _690  and  _691
REMARK  260  A    between atoms: _693  and  _695
REMARK  261  A    between atoms: _695  and  _696
REMARK  262  A    between atoms: _695  and  _698
REMARK  263  A    between atoms: _698  and  _699
REMARK  264  A    between atoms: _704  and  _705
REMARK  265  A    between atoms: _708  and  _709
REMARK  266  A    between atoms: _714  and  _716
REMARK  267  A    between atoms: _716  and  _717
REMARK  268  A    between atoms: _716  and  _719
REMARK  269  A    between atoms: _719  and  _720
REMARK                            x       y       z     vdW  Elec       q    Type
REMARK                         _______ _______ _______ _____ _____    ______ ____
ROOT
ATOM      1  O   HOH     1      47.370  28.019  33.911  0.00  0.00    +0.000 OA
ENDROOT
TORSDOF 0
REMARK  Name = ../refined-set-2016/1hfs/1hfs_pocket.pdb
REMARK  269 active torsions:
REMARK  status: ('A' for Active; 'I' for Inactive)
REMARK    1  A    between atoms: _1  and  _3
REMARK    2  A    between atoms: _3  and  _4
REMARK    3  A    between atoms: _3  and  _6
REMARK    4  A    between atoms: _6  and  _7
REMARK    5  A    between atoms: _11  and  ZN_724
REMARK    6  A    between atoms: _12  and  _14
REMARK    7  A    between atoms: _14  and  _15
REMARK    8  A    between atoms: _14  and  _17
REMARK    9  A    between atoms: _17  and  _18
REMARK   10  A    between atoms: _18  and  _20
REMARK   11  A    between atoms: _20  and  ZN_724
REMARK   12  A    between atoms: _21  and  _23
REMARK   13  A    between atoms: _23  and  _24
REMARK   14  A    between atoms: _23  and  _26
REMARK   15  A    between atoms: _26  and  _27
REMARK   16  A    between atoms: _33  and  _35
REMARK   17  A    between atoms: _35  and  _36
REMARK   18  A    between atoms: _35  and  _38
REMARK   19  A    between atoms: _38  and  _39
REMARK   20  A    between atoms: _44  and  _45
REMARK   21  A    between atoms: _48  and  _49
REMARK   22  A    between atoms: _54  and  _56
REMARK   23  A    between atoms: _56  and  _57
REMARK   24  A    between atoms: _56  and  _59
REMARK   25  A    between atoms: _59  and  _60
REMARK   26  A    between atoms: _66  and  _68
REMARK   27  A    between atoms: _68  and  _69
REMARK   28  A    between atoms: _68  and  _71
REMARK   29  A    between atoms: _71  and  _72
REMARK   30  A    between atoms: _76  and  _77
REMARK   31  A    between atoms: _82  and  _84
REMARK   32  A    between atoms: _89  and  _92
REMARK   33  A    between atoms: _92  and  _93
REMARK   34  A    between atoms: _100  and  _103
REMARK   35  A    between atoms: _101  and  _106
REMARK   36  A    between atoms: _106  and  _108
REMARK   37  A    between atoms: _108  and  _109
REMARK   38  A    between atoms: _108  and  _111
REMARK   39  A    between atoms: _111  and  _112
REMARK   40  A    between atoms: _115  and  _117
REMARK   41  A    between atoms: _117  and  _118
REMARK   42  A    between atoms: _121  and  _123
REMARK   43  A    between atoms: _123  and  _124
REMARK   44  A    between atoms: _123  and  _126
REMARK   45  A    between atoms: _126  and  _127
REMARK   46  A    between atoms: _131  and  ZN_724
REMARK   47  A    between atoms: _132  and  _134
REMARK   48  A    between atoms: _134  and  _135
REMARK   49  A    between atoms: _138  and  _140
REMARK   50  A    between atoms: _140  and  _141
REMARK   51  A    between atoms: _140  and  _143
REMARK   52  A    between atoms: _143  and  _144
REMARK   53  A    between atoms: _149  and  _150
REMARK   54  A    between atoms: _152  and  _154
REMARK   55  A    between atoms: _154  and  _155
REMARK   56  A    between atoms: _158  and  _160
REMARK   57  A    between atoms: _160  and  _161
REMARK   58  A    between atoms: _160  and  _163
REMARK   59  A    between atoms: _163  and  _164
REMARK   60  A    between atoms: _167  and  _169
REMARK   61  A    between atoms: _169  and  _170
REMARK   62  A    between atoms: _172  and  _174
REMARK   63  A    between atoms: _174  and  _175
REMARK   64  A    between atoms: _174  and  _177
REMARK   65  A    between atoms: _177  and  _178
REMARK   66  A    between atoms: _181  and  _183
REMARK   67  A    between atoms: _183  and  _184
REMARK   68  A    between atoms: _183  and  _186
REMARK   69  A    between atoms: _186  and  _187
REMARK   70  A    between atoms: _188  and  ZN_724
REMARK   71  A    between atoms: _192  and  _194
REMARK   72  A    between atoms: _194  and  _195
REMARK   73  A    between atoms: _194  and  _197
REMARK   74  A    between atoms: _197  and  _198
REMARK   75  A    between atoms: _201  and  _203
REMARK   76  A    between atoms: _203  and  _204
REMARK   77  A    between atoms: _203  and  _206
REMARK   78  A    between atoms: _206  and  _207
REMARK   79  A    between atoms: _207  and  _208
REMARK   80  A    between atoms: _211  and  _213
REMARK   81  A    between atoms: _213  and  _214
REMARK   82  A    between atoms: _213  and  _216
REMARK   83  A    between atoms: _216  and  _217
REMARK   84  A    between atoms: _227  and  _229
REMARK   85  A    between atoms: _229  and  _230
REMARK   86  A    between atoms: _232  and  _234
REMARK   87  A    between atoms: _234  and  _235
REMARK   88  A    between atoms: _234  and  _237
REMARK   89  A    between atoms: _237  and  _238
REMARK   90  A    between atoms: _241  and  _243
REMARK   91  A    between atoms: _243  and  _244
REMARK   92  A    between atoms: _243  and  _246
REMARK   93  A    between atoms: _246  and  _247
REMARK   94  A    between atoms: _252  and  _254
REMARK   95  A    between atoms: _254  and  _255
REMARK   96  A    between atoms: _254  and  _257
REMARK   97  A    between atoms: _257  and  _258
REMARK   98  A    between atoms: _261  and  _263
REMARK   99  A    between atoms: _263  and  _264
REMARK  100  A    between atoms: _263  and  _266
REMARK  101  A    between atoms: _266  and  _267
REMARK  102  A    between atoms: _273  and  _275
REMARK  103  A    between atoms: _275  and  _276
REMARK  104  A    between atoms: _275  and  _278
REMARK  105  A    between atoms: _278  and  _279
REMARK  106  A    between atoms: _282  and  _284
REMARK  107  A    between atoms: _284  and  _285
REMARK  108  A    between atoms: _284  and  _287
REMARK  109  A    between atoms: _290  and  _292
REMARK  110  A    between atoms: _292  and  _293
REMARK  111  A    between atoms: _296  and  _298
REMARK  112  A    between atoms: _298  and  _299
REMARK  113  A    between atoms: _302  and  _304
REMARK  114  A    between atoms: _315  and  _318
REMARK  115  A    between atoms: _318  and  _319
REMARK  116  A    between atoms: _319  and  _320
REMARK  117  A    between atoms: _325  and  _328
REMARK  118  A    between atoms: _328  and  _329
REMARK  119  A    between atoms: _339  and  _340
REMARK  120  A    between atoms: _348  and  _350
REMARK  121  A    between atoms: _350  and  _351
REMARK  122  A    between atoms: _350  and  _353
REMARK  123  A    between atoms: _353  and  _354
REMARK  124  A    between atoms: _356  and  _358
REMARK  125  A    between atoms: _358  and  _359
REMARK  126  A    between atoms: _358  and  _361
REMARK  127  A    between atoms: _361  and  _362
REMARK  128  A    between atoms: _366  and  ZN_723
REMARK  129  A    between atoms: _367  and  _369
REMARK  130  A    between atoms: _369  and  _370
REMARK  131  A    between atoms: _369  and  _372
REMARK  132  A    between atoms: _372  and  _373
REMARK  133  A    between atoms: _375  and  _377
REMARK  134  A    between atoms: _377  and  _378
REMARK  135  A    between atoms: _377  and  _380
REMARK  136  A    between atoms: _380  and  _381
REMARK  137  A    between atoms: _386  and  _388
REMARK  138  A    between atoms: _388  and  _389
REMARK  139  A    between atoms: _388  and  _391
REMARK  140  A    between atoms: _391  and  _392
REMARK  141  A    between atoms: _395  and  _397
REMARK  142  A    between atoms: _397  and  _398
REMARK  143  A    between atoms: _397  and  _400
REMARK  144  A    between atoms: _400  and  _401
REMARK  145  A    between atoms: _401  and  _402
REMARK  146  A    between atoms: _405  and  _407
REMARK  147  A    between atoms: _407  and  _408
REMARK  148  A    between atoms: _411  and  _413
REMARK  149  A    between atoms: _413  and  _414
REMARK  150  A    between atoms: _413  and  _416
REMARK  151  A    between atoms: _416  and  _417
REMARK  152  A    between atoms: _420  and  _422
REMARK  153  A    between atoms: _422  and  _423
REMARK  154  A    between atoms: _422  and  _425
REMARK  155  A    between atoms: _425  and  _426
REMARK  156  A    between atoms: _426  and  _427
REMARK  157  A    between atoms: _429  and  _431
REMARK  158  A    between atoms: _431  and  _432
REMARK  159  A    between atoms: _431  and  _434
REMARK  160  A    between atoms: _434  and  _435
REMARK  161  A    between atoms: _440  and  _441
REMARK  162  A    between atoms: _444  and  _445
REMARK  163  A    between atoms: _450  and  _452
REMARK  164  A    between atoms: _452  and  _453
REMARK  165  A    between atoms: _452  and  _455
REMARK  166  A    between atoms: _455  and  _456
REMARK  167  A    between atoms: _459  and  _461
REMARK  168  A    between atoms: _461  and  _462
REMARK  169  A    between atoms: _461  and  _464
REMARK  170  A    between atoms: _464  and  _465
REMARK  171  A    between atoms: _470  and  _471
REMARK  172  A    between atoms: _473  and  _475
REMARK  173  A    between atoms: _475  and  _476
REMARK  174  A    between atoms: _475  and  _478
REMARK  175  A    between atoms: _478  and  _479
REMARK  176  A    between atoms: _484  and  _486
REMARK  177  A    between atoms: _486  and  _487
REMARK  178  A    between atoms: _486  and  _489
REMARK  179  A    between atoms: _489  and  _490
REMARK  180  A    between atoms: _492  and  _494
REMARK  181  A    between atoms: _494  and  _495
REMARK  182  A    between atoms: _494  and  _497
REMARK  183  A    between atoms: _497  and  _498
REMARK  184  A    between atoms: _501  and  _503
REMARK  185  A    between atoms: _503  and  _504
REMARK  186  A    between atoms: _503  and  _506
REMARK  187  A    between atoms: _506  and  _507
REMARK  188  A    between atoms: _510  and  _512
REMARK  189  A    between atoms: _512  and  _513
REMARK  190  A    between atoms: _512  and  _515
REMARK  191  A    between atoms: _515  and  _516
REMARK  192  A    between atoms: _519  and  _521
REMARK  193  A    between atoms: _521  and  _522
REMARK  194  A    between atoms: _521  and  _524
REMARK  195  A    between atoms: _524  and  _525
REMARK  196  A    between atoms: _528  and  _530
REMARK  197  A    between atoms: _530  and  _531
REMARK  198  A    between atoms: _530  and  _533
REMARK  199  A    between atoms: _533  and  _534
REMARK  200  A    between atoms: _534  and  _535
REMARK  201  A    between atoms: _535  and  _536
REMARK  202  A    between atoms: _545  and  _547
REMARK  203  A    between atoms: _547  and  _548
REMARK  204  A    between atoms: _547  and  _550
REMARK  205  A    between atoms: _550  and  _551
REMARK  206  A    between atoms: _557  and  _559
REMARK  207  A    between atoms: _559  and  _560
REMARK  208  A    between atoms: _559  and  _562
REMARK  209  A    between atoms: _562  and  _563
REMARK  210  A    between atoms: _563  and  _564
REMARK  211  A    between atoms: _564  and  _565
REMARK  212  A    between atoms: _574  and  _576
REMARK  213  A    between atoms: _576  and  _577
REMARK  214  A    between atoms: _576  and  _579
REMARK  215  A    between atoms: _579  and  _580
REMARK  216  A    between atoms: _582  and  _584
REMARK  217  A    between atoms: _584  and  _585
REMARK  218  A    between atoms: _584  and  _587
REMARK  219  A    between atoms: _587  and  _588
REMARK  220  A    between atoms: _591  and  _593
REMARK  221  A    between atoms: _593  and  _594
REMARK  222  A    between atoms: _593  and  _596
REMARK  223  A    between atoms: _596  and  _597
REMARK  224  A    between atoms: _601  and  _602
REMARK  225  A    between atoms: _607  and  _609
REMARK  226  A    between atoms: _609  and  _610
REMARK  227  A    between atoms: _609  and  _612
REMARK  228  A    between atoms: _612  and  _613
REMARK  229  A    between atoms: _618  and  _620
REMARK  230  A    between atoms: _620  and  _621
REMARK  231  A    between atoms: _620  and  _623
REMARK  232  A    between atoms: _623  and  _624
REMARK  233  A    between atoms: _627  and  _629
REMARK  234  A    between atoms: _629  and  _630
REMARK  235  A    between atoms: _629  and  _632
REMARK  236  A    between atoms: _632  and  _633
REMARK  237  A    between atoms: _639  and  _641
REMARK  238  A    between atoms: _641  and  _642
REMARK  239  A    between atoms: _641  and  _644
REMARK  240  A    between atoms: _644  and  _645
REMARK  241  A    between atoms: _650  and  _652
REMARK  242  A    between atoms: _652  and  _653
REMARK  243  A    between atoms: _652  and  _655
REMARK  244  A    between atoms: _655  and  _656
REMARK  245  A    between atoms: _658  and  _660
REMARK  246  A    between atoms: _660  and  _661
REMARK  247  A    between atoms: _664  and  _666
REMARK  248  A    between atoms: _666  and  _667
REMARK  249  A    between atoms: _666  and  _669
REMARK  250  A    between atoms: _669  and  _670
REMARK  251  A    between atoms: _675  and  _677
REMARK  252  A    between atoms: _677  and  _678
REMARK  253  A    between atoms: _677  and  _680
REMARK  254  A    between atoms: _680  and  _681
REMARK  255  A    between atoms: _684  and  _686
REMARK  256  A    between atoms: _686  and  _687
REMARK  257  A    between atoms: _686  and  _689
REMARK  258  A    between atoms: _689  and  _690
REMARK  259  A    between atoms: _690  and  _691
REMARK  260  A    between atoms: _693  and  _695
REMARK  261  A    between atoms: _695  and  _696
REMARK  262  A    between atoms: _695  and  _698
REMARK  263  A    between atoms: _698  and  _699
REMARK  264  A    between atoms: _704  and  _705
REMARK  265  A    between atoms: _708  and  _709
REMARK  266  A    between atoms: _714  and  _716
REMARK  267  A    between atoms: _716  and  _717
REMARK  268  A    between atoms: _716  and  _719
REMARK  269  A    between atoms: _719  and  _720
REMARK                            x       y       z     vdW  Elec       q    Type
REMARK                         _______ _______ _______ _____ _____    ______ ____
ROOT
ATOM      1  O   HOH     1      38.905  36.975  12.864  0.00  0.00    +0.000 OA
ENDROOT
TORSDOF 0
REMARK  Name = ../refined-set-2016/1hfs/1hfs_pocket.pdb
REMARK  269 active torsions:
REMARK  status: ('A' for Active; 'I' for Inactive)
REMARK    1  A    between atoms: _1  and  _3
REMARK    2  A    between atoms: _3  and  _4
REMARK    3  A    between atoms: _3  and  _6
REMARK    4  A    between atoms: _6  and  _7
REMARK    5  A    between atoms: _11  and  ZN_724
REMARK    6  A    between atoms: _12  and  _14
REMARK    7  A    between atoms: _14  and  _15
REMARK    8  A    between atoms: _14  and  _17
REMARK    9  A    between atoms: _17  and  _18
REMARK   10  A    between atoms: _18  and  _20
REMARK   11  A    between atoms: _20  and  ZN_724
REMARK   12  A    between atoms: _21  and  _23
REMARK   13  A    between atoms: _23  and  _24
REMARK   14  A    between atoms: _23  and  _26
REMARK   15  A    between atoms: _26  and  _27
REMARK   16  A    between atoms: _33  and  _35
REMARK   17  A    between atoms: _35  and  _36
REMARK   18  A    between atoms: _35  and  _38
REMARK   19  A    between atoms: _38  and  _39
REMARK   20  A    between atoms: _44  and  _45
REMARK   21  A    between atoms: _48  and  _49
REMARK   22  A    between atoms: _54  and  _56
REMARK   23  A    between atoms: _56  and  _57
REMARK   24  A    between atoms: _56  and  _59
REMARK   25  A    between atoms: _59  and  _60
REMARK   26  A    between atoms: _66  and  _68
REMARK   27  A    between atoms: _68  and  _69
REMARK   28  A    between atoms: _68  and  _71
REMARK   29  A    between atoms: _71  and  _72
REMARK   30  A    between atoms: _76  and  _77
REMARK   31  A    between atoms: _82  and  _84
REMARK   32  A    between atoms: _89  and  _92
REMARK   33  A    between atoms: _92  and  _93
REMARK   34  A    between atoms: _100  and  _103
REMARK   35  A    between atoms: _101  and  _106
REMARK   36  A    between atoms: _106  and  _108
REMARK   37  A    between atoms: _108  and  _109
REMARK   38  A    between atoms: _108  and  _111
REMARK   39  A    between atoms: _111  and  _112
REMARK   40  A    between atoms: _115  and  _117
REMARK   41  A    between atoms: _117  and  _118
REMARK   42  A    between atoms: _121  and  _123
REMARK   43  A    between atoms: _123  and  _124
REMARK   44  A    between atoms: _123  and  _126
REMARK   45  A    between atoms: _126  and  _127
REMARK   46  A    between atoms: _131  and  ZN_724
REMARK   47  A    between atoms: _132  and  _134
REMARK   48  A    between atoms: _134  and  _135
REMARK   49  A    between atoms: _138  and  _140
REMARK   50  A    between atoms: _140  and  _141
REMARK   51  A    between atoms: _140  and  _143
REMARK   52  A    between atoms: _143  and  _144
REMARK   53  A    between atoms: _149  and  _150
REMARK   54  A    between atoms: _152  and  _154
REMARK   55  A    between atoms: _154  and  _155
REMARK   56  A    between atoms: _158  and  _160
REMARK   57  A    between atoms: _160  and  _161
REMARK   58  A    between atoms: _160  and  _163
REMARK   59  A    between atoms: _163  and  _164
REMARK   60  A    between atoms: _167  and  _169
REMARK   61  A    between atoms: _169  and  _170
REMARK   62  A    between atoms: _172  and  _174
REMARK   63  A    between atoms: _174  and  _175
REMARK   64  A    between atoms: _174  and  _177
REMARK   65  A    between atoms: _177  and  _178
REMARK   66  A    between atoms: _181  and  _183
REMARK   67  A    between atoms: _183  and  _184
REMARK   68  A    between atoms: _183  and  _186
REMARK   69  A    between atoms: _186  and  _187
REMARK   70  A    between atoms: _188  and  ZN_724
REMARK   71  A    between atoms: _192  and  _194
REMARK   72  A    between atoms: _194  and  _195
REMARK   73  A    between atoms: _194  and  _197
REMARK   74  A    between atoms: _197  and  _198
REMARK   75  A    between atoms: _201  and  _203
REMARK   76  A    between atoms: _203  and  _204
REMARK   77  A    between atoms: _203  and  _206
REMARK   78  A    between atoms: _206  and  _207
REMARK   79  A    between atoms: _207  and  _208
REMARK   80  A    between atoms: _211  and  _213
REMARK   81  A    between atoms: _213  and  _214
REMARK   82  A    between atoms: _213  and  _216
REMARK   83  A    between atoms: _216  and  _217
REMARK   84  A    between atoms: _227  and  _229
REMARK   85  A    between atoms: _229  and  _230
REMARK   86  A    between atoms: _232  and  _234
REMARK   87  A    between atoms: _234  and  _235
REMARK   88  A    between atoms: _234  and  _237
REMARK   89  A    between atoms: _237  and  _238
REMARK   90  A    between atoms: _241  and  _243
REMARK   91  A    between atoms: _243  and  _244
REMARK   92  A    between atoms: _243  and  _246
REMARK   93  A    between atoms: _246  and  _247
REMARK   94  A    between atoms: _252  and  _254
REMARK   95  A    between atoms: _254  and  _255
REMARK   96  A    between atoms: _254  and  _257
REMARK   97  A    between atoms: _257  and  _258
REMARK   98  A    between atoms: _261  and  _263
REMARK   99  A    between atoms: _263  and  _264
REMARK  100  A    between atoms: _263  and  _266
REMARK  101  A    between atoms: _266  and  _267
REMARK  102  A    between atoms: _273  and  _275
REMARK  103  A    between atoms: _275  and  _276
REMARK  104  A    between atoms: _275  and  _278
REMARK  105  A    between atoms: _278  and  _279
REMARK  106  A    between atoms: _282  and  _284
REMARK  107  A    between atoms: _284  and  _285
REMARK  108  A    between atoms: _284  and  _287
REMARK  109  A    between atoms: _290  and  _292
REMARK  110  A    between atoms: _292  and  _293
REMARK  111  A    between atoms: _296  and  _298
REMARK  112  A    between atoms: _298  and  _299
REMARK  113  A    between atoms: _302  and  _304
REMARK  114  A    between atoms: _315  and  _318
REMARK  115  A    between atoms: _318  and  _319
REMARK  116  A    between atoms: _319  and  _320
REMARK  117  A    between atoms: _325  and  _328
REMARK  118  A    between atoms: _328  and  _329
REMARK  119  A    between atoms: _339  and  _340
REMARK  120  A    between atoms: _348  and  _350
REMARK  121  A    between atoms: _350  and  _351
REMARK  122  A    between atoms: _350  and  _353
REMARK  123  A    between atoms: _353  and  _354
REMARK  124  A    between atoms: _356  and  _358
REMARK  125  A    between atoms: _358  and  _359
REMARK  126  A    between atoms: _358  and  _361
REMARK  127  A    between atoms: _361  and  _362
REMARK  128  A    between atoms: _366  and  ZN_723
REMARK  129  A    between atoms: _367  and  _369
REMARK  130  A    between atoms: _369  and  _370
REMARK  131  A    between atoms: _369  and  _372
REMARK  132  A    between atoms: _372  and  _373
REMARK  133  A    between atoms: _375  and  _377
REMARK  134  A    between atoms: _377  and  _378
REMARK  135  A    between atoms: _377  and  _380
REMARK  136  A    between atoms: _380  and  _381
REMARK  137  A    between atoms: _386  and  _388
REMARK  138  A    between atoms: _388  and  _389
REMARK  139  A    between atoms: _388  and  _391
REMARK  140  A    between atoms: _391  and  _392
REMARK  141  A    between atoms: _395  and  _397
REMARK  142  A    between atoms: _397  and  _398
REMARK  143  A    between atoms: _397  and  _400
REMARK  144  A    between atoms: _400  and  _401
REMARK  145  A    between atoms: _401  and  _402
REMARK  146  A    between atoms: _405  and  _407
REMARK  147  A    between atoms: _407  and  _408
REMARK  148  A    between atoms: _411  and  _413
REMARK  149  A    between atoms: _413  and  _414
REMARK  150  A    between atoms: _413  and  _416
REMARK  151  A    between atoms: _416  and  _417
REMARK  152  A    between atoms: _420  and  _422
REMARK  153  A    between atoms: _422  and  _423
REMARK  154  A    between atoms: _422  and  _425
REMARK  155  A    between atoms: _425  and  _426
REMARK  156  A    between atoms: _426  and  _427
REMARK  157  A    between atoms: _429  and  _431
REMARK  158  A    between atoms: _431  and  _432
REMARK  159  A    between atoms: _431  and  _434
REMARK  160  A    between atoms: _434  and  _435
REMARK  161  A    between atoms: _440  and  _441
REMARK  162  A    between atoms: _444  and  _445
REMARK  163  A    between atoms: _450  and  _452
REMARK  164  A    between atoms: _452  and  _453
REMARK  165  A    between atoms: _452  and  _455
REMARK  166  A    between atoms: _455  and  _456
REMARK  167  A    between atoms: _459  and  _461
REMARK  168  A    between atoms: _461  and  _462
REMARK  169  A    between atoms: _461  and  _464
REMARK  170  A    between atoms: _464  and  _465
REMARK  171  A    between atoms: _470  and  _471
REMARK  172  A    between atoms: _473  and  _475
REMARK  173  A    between atoms: _475  and  _476
REMARK  174  A    between atoms: _475  and  _478
REMARK  175  A    between atoms: _478  and  _479
REMARK  176  A    between atoms: _484  and  _486
REMARK  177  A    between atoms: _486  and  _487
REMARK  178  A    between atoms: _486  and  _489
REMARK  179  A    between atoms: _489  and  _490
REMARK  180  A    between atoms: _492  and  _494
REMARK  181  A    between atoms: _494  and  _495
REMARK  182  A    between atoms: _494  and  _497
REMARK  183  A    between atoms: _497  and  _498
REMARK  184  A    between atoms: _501  and  _503
REMARK  185  A    between atoms: _503  and  _504
REMARK  186  A    between atoms: _503  and  _506
REMARK  187  A    between atoms: _506  and  _507
REMARK  188  A    between atoms: _510  and  _512
REMARK  189  A    between atoms: _512  and  _513
REMARK  190  A    between atoms: _512  and  _515
REMARK  191  A    between atoms: _515  and  _516
REMARK  192  A    between atoms: _519  and  _521
REMARK  193  A    between atoms: _521  and  _522
REMARK  194  A    between atoms: _521  and  _524
REMARK  195  A    between atoms: _524  and  _525
REMARK  196  A    between atoms: _528  and  _530
REMARK  197  A    between atoms: _530  and  _531
REMARK  198  A    between atoms: _530  and  _533
REMARK  199  A    between atoms: _533  and  _534
REMARK  200  A    between atoms: _534  and  _535
REMARK  201  A    between atoms: _535  and  _536
REMARK  202  A    between atoms: _545  and  _547
REMARK  203  A    between atoms: _547  and  _548
REMARK  204  A    between atoms: _547  and  _550
REMARK  205  A    between atoms: _550  and  _551
REMARK  206  A    between atoms: _557  and  _559
REMARK  207  A    between atoms: _559  and  _560
REMARK  208  A    between atoms: _559  and  _562
REMARK  209  A    between atoms: _562  and  _563
REMARK  210  A    between atoms: _563  and  _564
REMARK  211  A    between atoms: _564  and  _565
REMARK  212  A    between atoms: _574  and  _576
REMARK  213  A    between atoms: _576  and  _577
REMARK  214  A    between atoms: _576  and  _579
REMARK  215  A    between atoms: _579  and  _580
REMARK  216  A    between atoms: _582  and  _584
REMARK  217  A    between atoms: _584  and  _585
REMARK  218  A    between atoms: _584  and  _587
REMARK  219  A    between atoms: _587  and  _588
REMARK  220  A    between atoms: _591  and  _593
REMARK  221  A    between atoms: _593  and  _594
REMARK  222  A    between atoms: _593  and  _596
REMARK  223  A    between atoms: _596  and  _597
REMARK  224  A    between atoms: _601  and  _602
REMARK  225  A    between atoms: _607  and  _609
REMARK  226  A    between atoms: _609  and  _610
REMARK  227  A    between atoms: _609  and  _612
REMARK  228  A    between atoms: _612  and  _613
REMARK  229  A    between atoms: _618  and  _620
REMARK  230  A    between atoms: _620  and  _621
REMARK  231  A    between atoms: _620  and  _623
REMARK  232  A    between atoms: _623  and  _624
REMARK  233  A    between atoms: _627  and  _629
REMARK  234  A    between atoms: _629  and  _630
REMARK  235  A    between atoms: _629  and  _632
REMARK  236  A    between atoms: _632  and  _633
REMARK  237  A    between atoms: _639  and  _641
REMARK  238  A    between atoms: _641  and  _642
REMARK  239  A    between atoms: _641  and  _644
REMARK  240  A    between atoms: _644  and  _645
REMARK  241  A    between atoms: _650  and  _652
REMARK  242  A    between atoms: _652  and  _653
REMARK  243  A    between atoms: _652  and  _655
REMARK  244  A    between atoms: _655  and  _656
REMARK  245  A    between atoms: _658  and  _660
REMARK  246  A    between atoms: _660  and  _661
REMARK  247  A    between atoms: _664  and  _666
REMARK  248  A    between atoms: _666  and  _667
REMARK  249  A    between atoms: _666  and  _669
REMARK  250  A    between atoms: _669  and  _670
REMARK  251  A    between atoms: _675  and  _677
REMARK  252  A    between atoms: _677  and  _678
REMARK  253  A    between atoms: _677  and  _680
REMARK  254  A    between atoms: _680  and  _681
REMARK  255  A    between atoms: _684  and  _686
REMARK  256  A    between atoms: _686  and  _687
REMARK  257  A    between atoms: _686  and  _689
REMARK  258  A    between atoms: _689  and  _690
REMARK  259  A    between atoms: _690  and  _691
REMARK  260  A    between atoms: _693  and  _695
REMARK  261  A    between atoms: _695  and  _696
REMARK  262  A    between atoms: _695  and  _698
REMARK  263  A    between atoms: _698  and  _699
REMARK  264  A    between atoms: _704  and  _705
REMARK  265  A    between atoms: _708  and  _709
REMARK  266  A    between atoms: _714  and  _716
REMARK  267  A    between atoms: _716  and  _717
REMARK  268  A    between atoms: _716  and  _719
REMARK  269  A    between atoms: _719  and  _720
REMARK                            x       y       z     vdW  Elec       q    Type
REMARK                         _______ _______ _______ _____ _____    ______ ____
ROOT
ATOM      1  O   HOH     1      27.060  44.721  14.745  0.00  0.00    +0.000 OA
ENDROOT
TORSDOF 0
REMARK  Name = ../refined-set-2016/1hfs/1hfs_pocket.pdb
REMARK  269 active torsions:
REMARK  status: ('A' for Active; 'I' for Inactive)
REMARK    1  A    between atoms: _1  and  _3
REMARK    2  A    between atoms: _3  and  _4
REMARK    3  A    between atoms: _3  and  _6
REMARK    4  A    between atoms: _6  and  _7
REMARK    5  A    between atoms: _11  and  ZN_724
REMARK    6  A    between atoms: _12  and  _14
REMARK    7  A    between atoms: _14  and  _15
REMARK    8  A    between atoms: _14  and  _17
REMARK    9  A    between atoms: _17  and  _18
REMARK   10  A    between atoms: _18  and  _20
REMARK   11  A    between atoms: _20  and  ZN_724
REMARK   12  A    between atoms: _21  and  _23
REMARK   13  A    between atoms: _23  and  _24
REMARK   14  A    between atoms: _23  and  _26
REMARK   15  A    between atoms: _26  and  _27
REMARK   16  A    between atoms: _33  and  _35
REMARK   17  A    between atoms: _35  and  _36
REMARK   18  A    between atoms: _35  and  _38
REMARK   19  A    between atoms: _38  and  _39
REMARK   20  A    between atoms: _44  and  _45
REMARK   21  A    between atoms: _48  and  _49
REMARK   22  A    between atoms: _54  and  _56
REMARK   23  A    between atoms: _56  and  _57
REMARK   24  A    between atoms: _56  and  _59
REMARK   25  A    between atoms: _59  and  _60
REMARK   26  A    between atoms: _66  and  _68
REMARK   27  A    between atoms: _68  and  _69
REMARK   28  A    between atoms: _68  and  _71
REMARK   29  A    between atoms: _71  and  _72
REMARK   30  A    between atoms: _76  and  _77
REMARK   31  A    between atoms: _82  and  _84
REMARK   32  A    between atoms: _89  and  _92
REMARK   33  A    between atoms: _92  and  _93
REMARK   34  A    between atoms: _100  and  _103
REMARK   35  A    between atoms: _101  and  _106
REMARK   36  A    between atoms: _106  and  _108
REMARK   37  A    between atoms: _108  and  _109
REMARK   38  A    between atoms: _108  and  _111
REMARK   39  A    between atoms: _111  and  _112
REMARK   40  A    between atoms: _115  and  _117
REMARK   41  A    between atoms: _117  and  _118
REMARK   42  A    between atoms: _121  and  _123
REMARK   43  A    between atoms: _123  and  _124
REMARK   44  A    between atoms: _123  and  _126
REMARK   45  A    between atoms: _126  and  _127
REMARK   46  A    between atoms: _131  and  ZN_724
REMARK   47  A    between atoms: _132  and  _134
REMARK   48  A    between atoms: _134  and  _135
REMARK   49  A    between atoms: _138  and  _140
REMARK   50  A    between atoms: _140  and  _141
REMARK   51  A    between atoms: _140  and  _143
REMARK   52  A    between atoms: _143  and  _144
REMARK   53  A    between atoms: _149  and  _150
REMARK   54  A    between atoms: _152  and  _154
REMARK   55  A    between atoms: _154  and  _155
REMARK   56  A    between atoms: _158  and  _160
REMARK   57  A    between atoms: _160  and  _161
REMARK   58  A    between atoms: _160  and  _163
REMARK   59  A    between atoms: _163  and  _164
REMARK   60  A    between atoms: _167  and  _169
REMARK   61  A    between atoms: _169  and  _170
REMARK   62  A    between atoms: _172  and  _174
REMARK   63  A    between atoms: _174  and  _175
REMARK   64  A    between atoms: _174  and  _177
REMARK   65  A    between atoms: _177  and  _178
REMARK   66  A    between atoms: _181  and  _183
REMARK   67  A    between atoms: _183  and  _184
REMARK   68  A    between atoms: _183  and  _186
REMARK   69  A    between atoms: _186  and  _187
REMARK   70  A    between atoms: _188  and  ZN_724
REMARK   71  A    between atoms: _192  and  _194
REMARK   72  A    between atoms: _194  and  _195
REMARK   73  A    between atoms: _194  and  _197
REMARK   74  A    between atoms: _197  and  _198
REMARK   75  A    between atoms: _201  and  _203
REMARK   76  A    between atoms: _203  and  _204
REMARK   77  A    between atoms: _203  and  _206
REMARK   78  A    between atoms: _206  and  _207
REMARK   79  A    between atoms: _207  and  _208
REMARK   80  A    between atoms: _211  and  _213
REMARK   81  A    between atoms: _213  and  _214
REMARK   82  A    between atoms: _213  and  _216
REMARK   83  A    between atoms: _216  and  _217
REMARK   84  A    between atoms: _227  and  _229
REMARK   85  A    between atoms: _229  and  _230
REMARK   86  A    between atoms: _232  and  _234
REMARK   87  A    between atoms: _234  and  _235
REMARK   88  A    between atoms: _234  and  _237
REMARK   89  A    between atoms: _237  and  _238
REMARK   90  A    between atoms: _241  and  _243
REMARK   91  A    between atoms: _243  and  _244
REMARK   92  A    between atoms: _243  and  _246
REMARK   93  A    between atoms: _246  and  _247
REMARK   94  A    between atoms: _252  and  _254
REMARK   95  A    between atoms: _254  and  _255
REMARK   96  A    between atoms: _254  and  _257
REMARK   97  A    between atoms: _257  and  _258
REMARK   98  A    between atoms: _261  and  _263
REMARK   99  A    between atoms: _263  and  _264
REMARK  100  A    between atoms: _263  and  _266
REMARK  101  A    between atoms: _266  and  _267
REMARK  102  A    between atoms: _273  and  _275
REMARK  103  A    between atoms: _275  and  _276
REMARK  104  A    between atoms: _275  and  _278
REMARK  105  A    between atoms: _278  and  _279
REMARK  106  A    between atoms: _282  and  _284
REMARK  107  A    between atoms: _284  and  _285
REMARK  108  A    between atoms: _284  and  _287
REMARK  109  A    between atoms: _290  and  _292
REMARK  110  A    between atoms: _292  and  _293
REMARK  111  A    between atoms: _296  and  _298
REMARK  112  A    between atoms: _298  and  _299
REMARK  113  A    between atoms: _302  and  _304
REMARK  114  A    between atoms: _315  and  _318
REMARK  115  A    between atoms: _318  and  _319
REMARK  116  A    between atoms: _319  and  _320
REMARK  117  A    between atoms: _325  and  _328
REMARK  118  A    between atoms: _328  and  _329
REMARK  119  A    between atoms: _339  and  _340
REMARK  120  A    between atoms: _348  and  _350
REMARK  121  A    between atoms: _350  and  _351
REMARK  122  A    between atoms: _350  and  _353
REMARK  123  A    between atoms: _353  and  _354
REMARK  124  A    between atoms: _356  and  _358
REMARK  125  A    between atoms: _358  and  _359
REMARK  126  A    between atoms: _358  and  _361
REMARK  127  A    between atoms: _361  and  _362
REMARK  128  A    between atoms: _366  and  ZN_723
REMARK  129  A    between atoms: _367  and  _369
REMARK  130  A    between atoms: _369  and  _370
REMARK  131  A    between atoms: _369  and  _372
REMARK  132  A    between atoms: _372  and  _373
REMARK  133  A    between atoms: _375  and  _377
REMARK  134  A    between atoms: _377  and  _378
REMARK  135  A    between atoms: _377  and  _380
REMARK  136  A    between atoms: _380  and  _381
REMARK  137  A    between atoms: _386  and  _388
REMARK  138  A    between atoms: _388  and  _389
REMARK  139  A    between atoms: _388  and  _391
REMARK  140  A    between atoms: _391  and  _392
REMARK  141  A    between atoms: _395  and  _397
REMARK  142  A    between atoms: _397  and  _398
REMARK  143  A    between atoms: _397  and  _400
REMARK  144  A    between atoms: _400  and  _401
REMARK  145  A    between atoms: _401  and  _402
REMARK  146  A    between atoms: _405  and  _407
REMARK  147  A    between atoms: _407  and  _408
REMARK  148  A    between atoms: _411  and  _413
REMARK  149  A    between atoms: _413  and  _414
REMARK  150  A    between atoms: _413  and  _416
REMARK  151  A    between atoms: _416  and  _417
REMARK  152  A    between atoms: _420  and  _422
REMARK  153  A    between atoms: _422  and  _423
REMARK  154  A    between atoms: _422  and  _425
REMARK  155  A    between atoms: _425  and  _426
REMARK  156  A    between atoms: _426  and  _427
REMARK  157  A    between atoms: _429  and  _431
REMARK  158  A    between atoms: _431  and  _432
REMARK  159  A    between atoms: _431  and  _434
REMARK  160  A    between atoms: _434  and  _435
REMARK  161  A    between atoms: _440  and  _441
REMARK  162  A    between atoms: _444  and  _445
REMARK  163  A    between atoms: _450  and  _452
REMARK  164  A    between atoms: _452  and  _453
REMARK  165  A    between atoms: _452  and  _455
REMARK  166  A    between atoms: _455  and  _456
REMARK  167  A    between atoms: _459  and  _461
REMARK  168  A    between atoms: _461  and  _462
REMARK  169  A    between atoms: _461  and  _464
REMARK  170  A    between atoms: _464  and  _465
REMARK  171  A    between atoms: _470  and  _471
REMARK  172  A    between atoms: _473  and  _475
REMARK  173  A    between atoms: _475  and  _476
REMARK  174  A    between atoms: _475  and  _478
REMARK  175  A    between atoms: _478  and  _479
REMARK  176  A    between atoms: _484  and  _486
REMARK  177  A    between atoms: _486  and  _487
REMARK  178  A    between atoms: _486  and  _489
REMARK  179  A    between atoms: _489  and  _490
REMARK  180  A    between atoms: _492  and  _494
REMARK  181  A    between atoms: _494  and  _495
REMARK  182  A    between atoms: _494  and  _497
REMARK  183  A    between atoms: _497  and  _498
REMARK  184  A    between atoms: _501  and  _503
REMARK  185  A    between atoms: _503  and  _504
REMARK  186  A    between atoms: _503  and  _506
REMARK  187  A    between atoms: _506  and  _507
REMARK  188  A    between atoms: _510  and  _512
REMARK  189  A    between atoms: _512  and  _513
REMARK  190  A    between atoms: _512  and  _515
REMARK  191  A    between atoms: _515  and  _516
REMARK  192  A    between atoms: _519  and  _521
REMARK  193  A    between atoms: _521  and  _522
REMARK  194  A    between atoms: _521  and  _524
REMARK  195  A    between atoms: _524  and  _525
REMARK  196  A    between atoms: _528  and  _530
REMARK  197  A    between atoms: _530  and  _531
REMARK  198  A    between atoms: _530  and  _533
REMARK  199  A    between atoms: _533  and  _534
REMARK  200  A    between atoms: _534  and  _535
REMARK  201  A    between atoms: _535  and  _536
REMARK  202  A    between atoms: _545  and  _547
REMARK  203  A    between atoms: _547  and  _548
REMARK  204  A    between atoms: _547  and  _550
REMARK  205  A    between atoms: _550  and  _551
REMARK  206  A    between atoms: _557  and  _559
REMARK  207  A    between atoms: _559  and  _560
REMARK  208  A    between atoms: _559  and  _562
REMARK  209  A    between atoms: _562  and  _563
REMARK  210  A    between atoms: _563  and  _564
REMARK  211  A    between atoms: _564  and  _565
REMARK  212  A    between atoms: _574  and  _576
REMARK  213  A    between atoms: _576  and  _577
REMARK  214  A    between atoms: _576  and  _579
REMARK  215  A    between atoms: _579  and  _580
REMARK  216  A    between atoms: _582  and  _584
REMARK  217  A    between atoms: _584  and  _585
REMARK  218  A    between atoms: _584  and  _587
REMARK  219  A    between atoms: _587  and  _588
REMARK  220  A    between atoms: _591  and  _593
REMARK  221  A    between atoms: _593  and  _594
REMARK  222  A    between atoms: _593  and  _596
REMARK  223  A    between atoms: _596  and  _597
REMARK  224  A    between atoms: _601  and  _602
REMARK  225  A    between atoms: _607  and  _609
REMARK  226  A    between atoms: _609  and  _610
REMARK  227  A    between atoms: _609  and  _612
REMARK  228  A    between atoms: _612  and  _613
REMARK  229  A    between atoms: _618  and  _620
REMARK  230  A    between atoms: _620  and  _621
REMARK  231  A    between atoms: _620  and  _623
REMARK  232  A    between atoms: _623  and  _624
REMARK  233  A    between atoms: _627  and  _629
REMARK  234  A    between atoms: _629  and  _630
REMARK  235  A    between atoms: _629  and  _632
REMARK  236  A    between atoms: _632  and  _633
REMARK  237  A    between atoms: _639  and  _641
REMARK  238  A    between atoms: _641  and  _642
REMARK  239  A    between atoms: _641  and  _644
REMARK  240  A    between atoms: _644  and  _645
REMARK  241  A    between atoms: _650  and  _652
REMARK  242  A    between atoms: _652  and  _653
REMARK  243  A    between atoms: _652  and  _655
REMARK  244  A    between atoms: _655  and  _656
REMARK  245  A    between atoms: _658  and  _660
REMARK  246  A    between atoms: _660  and  _661
REMARK  247  A    between atoms: _664  and  _666
REMARK  248  A    between atoms: _666  and  _667
REMARK  249  A    between atoms: _666  and  _669
REMARK  250  A    between atoms: _669  and  _670
REMARK  251  A    between atoms: _675  and  _677
REMARK  252  A    between atoms: _677  and  _678
REMARK  253  A    between atoms: _677  and  _680
REMARK  254  A    between atoms: _680  and  _681
REMARK  255  A    between atoms: _684  and  _686
REMARK  256  A    between atoms: _686  and  _687
REMARK  257  A    between atoms: _686  and  _689
REMARK  258  A    between atoms: _689  and  _690
REMARK  259  A    between atoms: _690  and  _691
REMARK  260  A    between atoms: _693  and  _695
REMARK  261  A    between atoms: _695  and  _696
REMARK  262  A    between atoms: _695  and  _698
REMARK  263  A    between atoms: _698  and  _699
REMARK  264  A    between atoms: _704  and  _705
REMARK  265  A    between atoms: _708  and  _709
REMARK  266  A    between atoms: _714  and  _716
REMARK  267  A    between atoms: _716  and  _717
REMARK  268  A    between atoms: _716  and  _719
REMARK  269  A    between atoms: _719  and  _720
REMARK                            x       y       z     vdW  Elec       q    Type
REMARK                         _______ _______ _______ _____ _____    ______ ____
ROOT
ATOM      1  O   HOH     1      30.313  41.152  26.165  0.00  0.00    +0.000 OA
ENDROOT
TORSDOF 0
REMARK  Name = ../refined-set-2016/1hfs/1hfs_pocket.pdb
REMARK  269 active torsions:
REMARK  status: ('A' for Active; 'I' for Inactive)
REMARK    1  A    between atoms: _1  and  _3
REMARK    2  A    between atoms: _3  and  _4
REMARK    3  A    between atoms: _3  and  _6
REMARK    4  A    between atoms: _6  and  _7
REMARK    5  A    between atoms: _11  and  ZN_724
REMARK    6  A    between atoms: _12  and  _14
REMARK    7  A    between atoms: _14  and  _15
REMARK    8  A    between atoms: _14  and  _17
REMARK    9  A    between atoms: _17  and  _18
REMARK   10  A    between atoms: _18  and  _20
REMARK   11  A    between atoms: _20  and  ZN_724
REMARK   12  A    between atoms: _21  and  _23
REMARK   13  A    between atoms: _23  and  _24
REMARK   14  A    between atoms: _23  and  _26
REMARK   15  A    between atoms: _26  and  _27
REMARK   16  A    between atoms: _33  and  _35
REMARK   17  A    between atoms: _35  and  _36
REMARK   18  A    between atoms: _35  and  _38
REMARK   19  A    between atoms: _38  and  _39
REMARK   20  A    between atoms: _44  and  _45
REMARK   21  A    between atoms: _48  and  _49
REMARK   22  A    between atoms: _54  and  _56
REMARK   23  A    between atoms: _56  and  _57
REMARK   24  A    between atoms: _56  and  _59
REMARK   25  A    between atoms: _59  and  _60
REMARK   26  A    between atoms: _66  and  _68
REMARK   27  A    between atoms: _68  and  _69
REMARK   28  A    between atoms: _68  and  _71
REMARK   29  A    between atoms: _71  and  _72
REMARK   30  A    between atoms: _76  and  _77
REMARK   31  A    between atoms: _82  and  _84
REMARK   32  A    between atoms: _89  and  _92
REMARK   33  A    between atoms: _92  and  _93
REMARK   34  A    between atoms: _100  and  _103
REMARK   35  A    between atoms: _101  and  _106
REMARK   36  A    between atoms: _106  and  _108
REMARK   37  A    between atoms: _108  and  _109
REMARK   38  A    between atoms: _108  and  _111
REMARK   39  A    between atoms: _111  and  _112
REMARK   40  A    between atoms: _115  and  _117
REMARK   41  A    between atoms: _117  and  _118
REMARK   42  A    between atoms: _121  and  _123
REMARK   43  A    between atoms: _123  and  _124
REMARK   44  A    between atoms: _123  and  _126
REMARK   45  A    between atoms: _126  and  _127
REMARK   46  A    between atoms: _131  and  ZN_724
REMARK   47  A    between atoms: _132  and  _134
REMARK   48  A    between atoms: _134  and  _135
REMARK   49  A    between atoms: _138  and  _140
REMARK   50  A    between atoms: _140  and  _141
REMARK   51  A    between atoms: _140  and  _143
REMARK   52  A    between atoms: _143  and  _144
REMARK   53  A    between atoms: _149  and  _150
REMARK   54  A    between atoms: _152  and  _154
REMARK   55  A    between atoms: _154  and  _155
REMARK   56  A    between atoms: _158  and  _160
REMARK   57  A    between atoms: _160  and  _161
REMARK   58  A    between atoms: _160  and  _163
REMARK   59  A    between atoms: _163  and  _164
REMARK   60  A    between atoms: _167  and  _169
REMARK   61  A    between atoms: _169  and  _170
REMARK   62  A    between atoms: _172  and  _174
REMARK   63  A    between atoms: _174  and  _175
REMARK   64  A    between atoms: _174  and  _177
REMARK   65  A    between atoms: _177  and  _178
REMARK   66  A    between atoms: _181  and  _183
REMARK   67  A    between atoms: _183  and  _184
REMARK   68  A    between atoms: _183  and  _186
REMARK   69  A    between atoms: _186  and  _187
REMARK   70  A    between atoms: _188  and  ZN_724
REMARK   71  A    between atoms: _192  and  _194
REMARK   72  A    between atoms: _194  and  _195
REMARK   73  A    between atoms: _194  and  _197
REMARK   74  A    between atoms: _197  and  _198
REMARK   75  A    between atoms: _201  and  _203
REMARK   76  A    between atoms: _203  and  _204
REMARK   77  A    between atoms: _203  and  _206
REMARK   78  A    between atoms: _206  and  _207
REMARK   79  A    between atoms: _207  and  _208
REMARK   80  A    between atoms: _211  and  _213
REMARK   81  A    between atoms: _213  and  _214
REMARK   82  A    between atoms: _213  and  _216
REMARK   83  A    between atoms: _216  and  _217
REMARK   84  A    between atoms: _227  and  _229
REMARK   85  A    between atoms: _229  and  _230
REMARK   86  A    between atoms: _232  and  _234
REMARK   87  A    between atoms: _234  and  _235
REMARK   88  A    between atoms: _234  and  _237
REMARK   89  A    between atoms: _237  and  _238
REMARK   90  A    between atoms: _241  and  _243
REMARK   91  A    between atoms: _243  and  _244
REMARK   92  A    between atoms: _243  and  _246
REMARK   93  A    between atoms: _246  and  _247
REMARK   94  A    between atoms: _252  and  _254
REMARK   95  A    between atoms: _254  and  _255
REMARK   96  A    between atoms: _254  and  _257
REMARK   97  A    between atoms: _257  and  _258
REMARK   98  A    between atoms: _261  and  _263
REMARK   99  A    between atoms: _263  and  _264
REMARK  100  A    between atoms: _263  and  _266
REMARK  101  A    between atoms: _266  and  _267
REMARK  102  A    between atoms: _273  and  _275
REMARK  103  A    between atoms: _275  and  _276
REMARK  104  A    between atoms: _275  and  _278
REMARK  105  A    between atoms: _278  and  _279
REMARK  106  A    between atoms: _282  and  _284
REMARK  107  A    between atoms: _284  and  _285
REMARK  108  A    between atoms: _284  and  _287
REMARK  109  A    between atoms: _290  and  _292
REMARK  110  A    between atoms: _292  and  _293
REMARK  111  A    between atoms: _296  and  _298
REMARK  112  A    between atoms: _298  and  _299
REMARK  113  A    between atoms: _302  and  _304
REMARK  114  A    between atoms: _315  and  _318
REMARK  115  A    between atoms: _318  and  _319
REMARK  116  A    between atoms: _319  and  _320
REMARK  117  A    between atoms: _325  and  _328
REMARK  118  A    between atoms: _328  and  _329
REMARK  119  A    between atoms: _339  and  _340
REMARK  120  A    between atoms: _348  and  _350
REMARK  121  A    between atoms: _350  and  _351
REMARK  122  A    between atoms: _350  and  _353
REMARK  123  A    between atoms: _353  and  _354
REMARK  124  A    between atoms: _356  and  _358
REMARK  125  A    between atoms: _358  and  _359
REMARK  126  A    between atoms: _358  and  _361
REMARK  127  A    between atoms: _361  and  _362
REMARK  128  A    between atoms: _366  and  ZN_723
REMARK  129  A    between atoms: _367  and  _369
REMARK  130  A    between atoms: _369  and  _370
REMARK  131  A    between atoms: _369  and  _372
REMARK  132  A    between atoms: _372  and  _373
REMARK  133  A    between atoms: _375  and  _377
REMARK  134  A    between atoms: _377  and  _378
REMARK  135  A    between atoms: _377  and  _380
REMARK  136  A    between atoms: _380  and  _381
REMARK  137  A    between atoms: _386  and  _388
REMARK  138  A    between atoms: _388  and  _389
REMARK  139  A    between atoms: _388  and  _391
REMARK  140  A    between atoms: _391  and  _392
REMARK  141  A    between atoms: _395  and  _397
REMARK  142  A    between atoms: _397  and  _398
REMARK  143  A    between atoms: _397  and  _400
REMARK  144  A    between atoms: _400  and  _401
REMARK  145  A    between atoms: _401  and  _402
REMARK  146  A    between atoms: _405  and  _407
REMARK  147  A    between atoms: _407  and  _408
REMARK  148  A    between atoms: _411  and  _413
REMARK  149  A    between atoms: _413  and  _414
REMARK  150  A    between atoms: _413  and  _416
REMARK  151  A    between atoms: _416  and  _417
REMARK  152  A    between atoms: _420  and  _422
REMARK  153  A    between atoms: _422  and  _423
REMARK  154  A    between atoms: _422  and  _425
REMARK  155  A    between atoms: _425  and  _426
REMARK  156  A    between atoms: _426  and  _427
REMARK  157  A    between atoms: _429  and  _431
REMARK  158  A    between atoms: _431  and  _432
REMARK  159  A    between atoms: _431  and  _434
REMARK  160  A    between atoms: _434  and  _435
REMARK  161  A    between atoms: _440  and  _441
REMARK  162  A    between atoms: _444  and  _445
REMARK  163  A    between atoms: _450  and  _452
REMARK  164  A    between atoms: _452  and  _453
REMARK  165  A    between atoms: _452  and  _455
REMARK  166  A    between atoms: _455  and  _456
REMARK  167  A    between atoms: _459  and  _461
REMARK  168  A    between atoms: _461  and  _462
REMARK  169  A    between atoms: _461  and  _464
REMARK  170  A    between atoms: _464  and  _465
REMARK  171  A    between atoms: _470  and  _471
REMARK  172  A    between atoms: _473  and  _475
REMARK  173  A    between atoms: _475  and  _476
REMARK  174  A    between atoms: _475  and  _478
REMARK  175  A    between atoms: _478  and  _479
REMARK  176  A    between atoms: _484  and  _486
REMARK  177  A    between atoms: _486  and  _487
REMARK  178  A    between atoms: _486  and  _489
REMARK  179  A    between atoms: _489  and  _490
REMARK  180  A    between atoms: _492  and  _494
REMARK  181  A    between atoms: _494  and  _495
REMARK  182  A    between atoms: _494  and  _497
REMARK  183  A    between atoms: _497  and  _498
REMARK  184  A    between atoms: _501  and  _503
REMARK  185  A    between atoms: _503  and  _504
REMARK  186  A    between atoms: _503  and  _506
REMARK  187  A    between atoms: _506  and  _507
REMARK  188  A    between atoms: _510  and  _512
REMARK  189  A    between atoms: _512  and  _513
REMARK  190  A    between atoms: _512  and  _515
REMARK  191  A    between atoms: _515  and  _516
REMARK  192  A    between atoms: _519  and  _521
REMARK  193  A    between atoms: _521  and  _522
REMARK  194  A    between atoms: _521  and  _524
REMARK  195  A    between atoms: _524  and  _525
REMARK  196  A    between atoms: _528  and  _530
REMARK  197  A    between atoms: _530  and  _531
REMARK  198  A    between atoms: _530  and  _533
REMARK  199  A    between atoms: _533  and  _534
REMARK  200  A    between atoms: _534  and  _535
REMARK  201  A    between atoms: _535  and  _536
REMARK  202  A    between atoms: _545  and  _547
REMARK  203  A    between atoms: _547  and  _548
REMARK  204  A    between atoms: _547  and  _550
REMARK  205  A    between atoms: _550  and  _551
REMARK  206  A    between atoms: _557  and  _559
REMARK  207  A    between atoms: _559  and  _560
REMARK  208  A    between atoms: _559  and  _562
REMARK  209  A    between atoms: _562  and  _563
REMARK  210  A    between atoms: _563  and  _564
REMARK  211  A    between atoms: _564  and  _565
REMARK  212  A    between atoms: _574  and  _576
REMARK  213  A    between atoms: _576  and  _577
REMARK  214  A    between atoms: _576  and  _579
REMARK  215  A    between atoms: _579  and  _580
REMARK  216  A    between atoms: _582  and  _584
REMARK  217  A    between atoms: _584  and  _585
REMARK  218  A    between atoms: _584  and  _587
REMARK  219  A    between atoms: _587  and  _588
REMARK  220  A    between atoms: _591  and  _593
REMARK  221  A    between atoms: _593  and  _594
REMARK  222  A    between atoms: _593  and  _596
REMARK  223  A    between atoms: _596  and  _597
REMARK  224  A    between atoms: _601  and  _602
REMARK  225  A    between atoms: _607  and  _609
REMARK  226  A    between atoms: _609  and  _610
REMARK  227  A    between atoms: _609  and  _612
REMARK  228  A    between atoms: _612  and  _613
REMARK  229  A    between atoms: _618  and  _620
REMARK  230  A    between atoms: _620  and  _621
REMARK  231  A    between atoms: _620  and  _623
REMARK  232  A    between atoms: _623  and  _624
REMARK  233  A    between atoms: _627  and  _629
REMARK  234  A    between atoms: _629  and  _630
REMARK  235  A    between atoms: _629  and  _632
REMARK  236  A    between atoms: _632  and  _633
REMARK  237  A    between atoms: _639  and  _641
REMARK  238  A    between atoms: _641  and  _642
REMARK  239  A    between atoms: _641  and  _644
REMARK  240  A    between atoms: _644  and  _645
REMARK  241  A    between atoms: _650  and  _652
REMARK  242  A    between atoms: _652  and  _653
REMARK  243  A    between atoms: _652  and  _655
REMARK  244  A    between atoms: _655  and  _656
REMARK  245  A    between atoms: _658  and  _660
REMARK  246  A    between atoms: _660  and  _661
REMARK  247  A    between atoms: _664  and  _666
REMARK  248  A    between atoms: _666  and  _667
REMARK  249  A    between atoms: _666  and  _669
REMARK  250  A    between atoms: _669  and  _670
REMARK  251  A    between atoms: _675  and  _677
REMARK  252  A    between atoms: _677  and  _678
REMARK  253  A    between atoms: _677  and  _680
REMARK  254  A    between atoms: _680  and  _681
REMARK  255  A    between atoms: _684  and  _686
REMARK  256  A    between atoms: _686  and  _687
REMARK  257  A    between atoms: _686  and  _689
REMARK  258  A    between atoms: _689  and  _690
REMARK  259  A    between atoms: _690  and  _691
REMARK  260  A    between atoms: _693  and  _695
REMARK  261  A    between atoms: _695  and  _696
REMARK  262  A    between atoms: _695  and  _698
REMARK  263  A    between atoms: _698  and  _699
REMARK  264  A    between atoms: _704  and  _705
REMARK  265  A    between atoms: _708  and  _709
REMARK  266  A    between atoms: _714  and  _716
REMARK  267  A    between atoms: _716  and  _717
REMARK  268  A    between atoms: _716  and  _719
REMARK  269  A    between atoms: _719  and  _720
REMARK                            x       y       z     vdW  Elec       q    Type
REMARK                         _______ _______ _______ _____ _____    ______ ____
ROOT
ATOM      1  O   HOH     1      27.633  45.675  18.651  0.00  0.00    +0.000 OA
ENDROOT
TORSDOF 0
REMARK  Name = ../refined-set-2016/1hfs/1hfs_pocket.pdb
REMARK  269 active torsions:
REMARK  status: ('A' for Active; 'I' for Inactive)
REMARK    1  A    between atoms: _1  and  _3
REMARK    2  A    between atoms: _3  and  _4
REMARK    3  A    between atoms: _3  and  _6
REMARK    4  A    between atoms: _6  and  _7
REMARK    5  A    between atoms: _11  and  ZN_724
REMARK    6  A    between atoms: _12  and  _14
REMARK    7  A    between atoms: _14  and  _15
REMARK    8  A    between atoms: _14  and  _17
REMARK    9  A    between atoms: _17  and  _18
REMARK   10  A    between atoms: _18  and  _20
REMARK   11  A    between atoms: _20  and  ZN_724
REMARK   12  A    between atoms: _21  and  _23
REMARK   13  A    between atoms: _23  and  _24
REMARK   14  A    between atoms: _23  and  _26
REMARK   15  A    between atoms: _26  and  _27
REMARK   16  A    between atoms: _33  and  _35
REMARK   17  A    between atoms: _35  and  _36
REMARK   18  A    between atoms: _35  and  _38
REMARK   19  A    between atoms: _38  and  _39
REMARK   20  A    between atoms: _44  and  _45
REMARK   21  A    between atoms: _48  and  _49
REMARK   22  A    between atoms: _54  and  _56
REMARK   23  A    between atoms: _56  and  _57
REMARK   24  A    between atoms: _56  and  _59
REMARK   25  A    between atoms: _59  and  _60
REMARK   26  A    between atoms: _66  and  _68
REMARK   27  A    between atoms: _68  and  _69
REMARK   28  A    between atoms: _68  and  _71
REMARK   29  A    between atoms: _71  and  _72
REMARK   30  A    between atoms: _76  and  _77
REMARK   31  A    between atoms: _82  and  _84
REMARK   32  A    between atoms: _89  and  _92
REMARK   33  A    between atoms: _92  and  _93
REMARK   34  A    between atoms: _100  and  _103
REMARK   35  A    between atoms: _101  and  _106
REMARK   36  A    between atoms: _106  and  _108
REMARK   37  A    between atoms: _108  and  _109
REMARK   38  A    between atoms: _108  and  _111
REMARK   39  A    between atoms: _111  and  _112
REMARK   40  A    between atoms: _115  and  _117
REMARK   41  A    between atoms: _117  and  _118
REMARK   42  A    between atoms: _121  and  _123
REMARK   43  A    between atoms: _123  and  _124
REMARK   44  A    between atoms: _123  and  _126
REMARK   45  A    between atoms: _126  and  _127
REMARK   46  A    between atoms: _131  and  ZN_724
REMARK   47  A    between atoms: _132  and  _134
REMARK   48  A    between atoms: _134  and  _135
REMARK   49  A    between atoms: _138  and  _140
REMARK   50  A    between atoms: _140  and  _141
REMARK   51  A    between atoms: _140  and  _143
REMARK   52  A    between atoms: _143  and  _144
REMARK   53  A    between atoms: _149  and  _150
REMARK   54  A    between atoms: _152  and  _154
REMARK   55  A    between atoms: _154  and  _155
REMARK   56  A    between atoms: _158  and  _160
REMARK   57  A    between atoms: _160  and  _161
REMARK   58  A    between atoms: _160  and  _163
REMARK   59  A    between atoms: _163  and  _164
REMARK   60  A    between atoms: _167  and  _169
REMARK   61  A    between atoms: _169  and  _170
REMARK   62  A    between atoms: _172  and  _174
REMARK   63  A    between atoms: _174  and  _175
REMARK   64  A    between atoms: _174  and  _177
REMARK   65  A    between atoms: _177  and  _178
REMARK   66  A    between atoms: _181  and  _183
REMARK   67  A    between atoms: _183  and  _184
REMARK   68  A    between atoms: _183  and  _186
REMARK   69  A    between atoms: _186  and  _187
REMARK   70  A    between atoms: _188  and  ZN_724
REMARK   71  A    between atoms: _192  and  _194
REMARK   72  A    between atoms: _194  and  _195
REMARK   73  A    between atoms: _194  and  _197
REMARK   74  A    between atoms: _197  and  _198
REMARK   75  A    between atoms: _201  and  _203
REMARK   76  A    between atoms: _203  and  _204
REMARK   77  A    between atoms: _203  and  _206
REMARK   78  A    between atoms: _206  and  _207
REMARK   79  A    between atoms: _207  and  _208
REMARK   80  A    between atoms: _211  and  _213
REMARK   81  A    between atoms: _213  and  _214
REMARK   82  A    between atoms: _213  and  _216
REMARK   83  A    between atoms: _216  and  _217
REMARK   84  A    between atoms: _227  and  _229
REMARK   85  A    between atoms: _229  and  _230
REMARK   86  A    between atoms: _232  and  _234
REMARK   87  A    between atoms: _234  and  _235
REMARK   88  A    between atoms: _234  and  _237
REMARK   89  A    between atoms: _237  and  _238
REMARK   90  A    between atoms: _241  and  _243
REMARK   91  A    between atoms: _243  and  _244
REMARK   92  A    between atoms: _243  and  _246
REMARK   93  A    between atoms: _246  and  _247
REMARK   94  A    between atoms: _252  and  _254
REMARK   95  A    between atoms: _254  and  _255
REMARK   96  A    between atoms: _254  and  _257
REMARK   97  A    between atoms: _257  and  _258
REMARK   98  A    between atoms: _261  and  _263
REMARK   99  A    between atoms: _263  and  _264
REMARK  100  A    between atoms: _263  and  _266
REMARK  101  A    between atoms: _266  and  _267
REMARK  102  A    between atoms: _273  and  _275
REMARK  103  A    between atoms: _275  and  _276
REMARK  104  A    between atoms: _275  and  _278
REMARK  105  A    between atoms: _278  and  _279
REMARK  106  A    between atoms: _282  and  _284
REMARK  107  A    between atoms: _284  and  _285
REMARK  108  A    between atoms: _284  and  _287
REMARK  109  A    between atoms: _290  and  _292
REMARK  110  A    between atoms: _292  and  _293
REMARK  111  A    between atoms: _296  and  _298
REMARK  112  A    between atoms: _298  and  _299
REMARK  113  A    between atoms: _302  and  _304
REMARK  114  A    between atoms: _315  and  _318
REMARK  115  A    between atoms: _318  and  _319
REMARK  116  A    between atoms: _319  and  _320
REMARK  117  A    between atoms: _325  and  _328
REMARK  118  A    between atoms: _328  and  _329
REMARK  119  A    between atoms: _339  and  _340
REMARK  120  A    between atoms: _348  and  _350
REMARK  121  A    between atoms: _350  and  _351
REMARK  122  A    between atoms: _350  and  _353
REMARK  123  A    between atoms: _353  and  _354
REMARK  124  A    between atoms: _356  and  _358
REMARK  125  A    between atoms: _358  and  _359
REMARK  126  A    between atoms: _358  and  _361
REMARK  127  A    between atoms: _361  and  _362
REMARK  128  A    between atoms: _366  and  ZN_723
REMARK  129  A    between atoms: _367  and  _369
REMARK  130  A    between atoms: _369  and  _370
REMARK  131  A    between atoms: _369  and  _372
REMARK  132  A    between atoms: _372  and  _373
REMARK  133  A    between atoms: _375  and  _377
REMARK  134  A    between atoms: _377  and  _378
REMARK  135  A    between atoms: _377  and  _380
REMARK  136  A    between atoms: _380  and  _381
REMARK  137  A    between atoms: _386  and  _388
REMARK  138  A    between atoms: _388  and  _389
REMARK  139  A    between atoms: _388  and  _391
REMARK  140  A    between atoms: _391  and  _392
REMARK  141  A    between atoms: _395  and  _397
REMARK  142  A    between atoms: _397  and  _398
REMARK  143  A    between atoms: _397  and  _400
REMARK  144  A    between atoms: _400  and  _401
REMARK  145  A    between atoms: _401  and  _402
REMARK  146  A    between atoms: _405  and  _407
REMARK  147  A    between atoms: _407  and  _408
REMARK  148  A    between atoms: _411  and  _413
REMARK  149  A    between atoms: _413  and  _414
REMARK  150  A    between atoms: _413  and  _416
REMARK  151  A    between atoms: _416  and  _417
REMARK  152  A    between atoms: _420  and  _422
REMARK  153  A    between atoms: _422  and  _423
REMARK  154  A    between atoms: _422  and  _425
REMARK  155  A    between atoms: _425  and  _426
REMARK  156  A    between atoms: _426  and  _427
REMARK  157  A    between atoms: _429  and  _431
REMARK  158  A    between atoms: _431  and  _432
REMARK  159  A    between atoms: _431  and  _434
REMARK  160  A    between atoms: _434  and  _435
REMARK  161  A    between atoms: _440  and  _441
REMARK  162  A    between atoms: _444  and  _445
REMARK  163  A    between atoms: _450  and  _452
REMARK  164  A    between atoms: _452  and  _453
REMARK  165  A    between atoms: _452  and  _455
REMARK  166  A    between atoms: _455  and  _456
REMARK  167  A    between atoms: _459  and  _461
REMARK  168  A    between atoms: _461  and  _462
REMARK  169  A    between atoms: _461  and  _464
REMARK  170  A    between atoms: _464  and  _465
REMARK  171  A    between atoms: _470  and  _471
REMARK  172  A    between atoms: _473  and  _475
REMARK  173  A    between atoms: _475  and  _476
REMARK  174  A    between atoms: _475  and  _478
REMARK  175  A    between atoms: _478  and  _479
REMARK  176  A    between atoms: _484  and  _486
REMARK  177  A    between atoms: _486  and  _487
REMARK  178  A    between atoms: _486  and  _489
REMARK  179  A    between atoms: _489  and  _490
REMARK  180  A    between atoms: _492  and  _494
REMARK  181  A    between atoms: _494  and  _495
REMARK  182  A    between atoms: _494  and  _497
REMARK  183  A    between atoms: _497  and  _498
REMARK  184  A    between atoms: _501  and  _503
REMARK  185  A    between atoms: _503  and  _504
REMARK  186  A    between atoms: _503  and  _506
REMARK  187  A    between atoms: _506  and  _507
REMARK  188  A    between atoms: _510  and  _512
REMARK  189  A    between atoms: _512  and  _513
REMARK  190  A    between atoms: _512  and  _515
REMARK  191  A    between atoms: _515  and  _516
REMARK  192  A    between atoms: _519  and  _521
REMARK  193  A    between atoms: _521  and  _522
REMARK  194  A    between atoms: _521  and  _524
REMARK  195  A    between atoms: _524  and  _525
REMARK  196  A    between atoms: _528  and  _530
REMARK  197  A    between atoms: _530  and  _531
REMARK  198  A    between atoms: _530  and  _533
REMARK  199  A    between atoms: _533  and  _534
REMARK  200  A    between atoms: _534  and  _535
REMARK  201  A    between atoms: _535  and  _536
REMARK  202  A    between atoms: _545  and  _547
REMARK  203  A    between atoms: _547  and  _548
REMARK  204  A    between atoms: _547  and  _550
REMARK  205  A    between atoms: _550  and  _551
REMARK  206  A    between atoms: _557  and  _559
REMARK  207  A    between atoms: _559  and  _560
REMARK  208  A    between atoms: _559  and  _562
REMARK  209  A    between atoms: _562  and  _563
REMARK  210  A    between atoms: _563  and  _564
REMARK  211  A    between atoms: _564  and  _565
REMARK  212  A    between atoms: _574  and  _576
REMARK  213  A    between atoms: _576  and  _577
REMARK  214  A    between atoms: _576  and  _579
REMARK  215  A    between atoms: _579  and  _580
REMARK  216  A    between atoms: _582  and  _584
REMARK  217  A    between atoms: _584  and  _585
REMARK  218  A    between atoms: _584  and  _587
REMARK  219  A    between atoms: _587  and  _588
REMARK  220  A    between atoms: _591  and  _593
REMARK  221  A    between atoms: _593  and  _594
REMARK  222  A    between atoms: _593  and  _596
REMARK  223  A    between atoms: _596  and  _597
REMARK  224  A    between atoms: _601  and  _602
REMARK  225  A    between atoms: _607  and  _609
REMARK  226  A    between atoms: _609  and  _610
REMARK  227  A    between atoms: _609  and  _612
REMARK  228  A    between atoms: _612  and  _613
REMARK  229  A    between atoms: _618  and  _620
REMARK  230  A    between atoms: _620  and  _621
REMARK  231  A    between atoms: _620  and  _623
REMARK  232  A    between atoms: _623  and  _624
REMARK  233  A    between atoms: _627  and  _629
REMARK  234  A    between atoms: _629  and  _630
REMARK  235  A    between atoms: _629  and  _632
REMARK  236  A    between atoms: _632  and  _633
REMARK  237  A    between atoms: _639  and  _641
REMARK  238  A    between atoms: _641  and  _642
REMARK  239  A    between atoms: _641  and  _644
REMARK  240  A    between atoms: _644  and  _645
REMARK  241  A    between atoms: _650  and  _652
REMARK  242  A    between atoms: _652  and  _653
REMARK  243  A    between atoms: _652  and  _655
REMARK  244  A    between atoms: _655  and  _656
REMARK  245  A    between atoms: _658  and  _660
REMARK  246  A    between atoms: _660  and  _661
REMARK  247  A    between atoms: _664  and  _666
REMARK  248  A    between atoms: _666  and  _667
REMARK  249  A    between atoms: _666  and  _669
REMARK  250  A    between atoms: _669  and  _670
REMARK  251  A    between atoms: _675  and  _677
REMARK  252  A    between atoms: _677  and  _678
REMARK  253  A    between atoms: _677  and  _680
REMARK  254  A    between atoms: _680  and  _681
REMARK  255  A    between atoms: _684  and  _686
REMARK  256  A    between atoms: _686  and  _687
REMARK  257  A    between atoms: _686  and  _689
REMARK  258  A    between atoms: _689  and  _690
REMARK  259  A    between atoms: _690  and  _691
REMARK  260  A    between atoms: _693  and  _695
REMARK  261  A    between atoms: _695  and  _696
REMARK  262  A    between atoms: _695  and  _698
REMARK  263  A    between atoms: _698  and  _699
REMARK  264  A    between atoms: _704  and  _705
REMARK  265  A    between atoms: _708  and  _709
REMARK  266  A    between atoms: _714  and  _716
REMARK  267  A    between atoms: _716  and  _717
REMARK  268  A    between atoms: _716  and  _719
REMARK  269  A    between atoms: _719  and  _720
REMARK                            x       y       z     vdW  Elec       q    Type
REMARK                         _______ _______ _______ _____ _____    ______ ____
ROOT
ATOM      1  O   HOH     1      30.467  47.203  18.523  0.00  0.00    +0.000 OA
ENDROOT
TORSDOF 0
REMARK  Name = ../refined-set-2016/1hfs/1hfs_pocket.pdb
REMARK  269 active torsions:
REMARK  status: ('A' for Active; 'I' for Inactive)
REMARK    1  A    between atoms: _1  and  _3
REMARK    2  A    between atoms: _3  and  _4
REMARK    3  A    between atoms: _3  and  _6
REMARK    4  A    between atoms: _6  and  _7
REMARK    5  A    between atoms: _11  and  ZN_724
REMARK    6  A    between atoms: _12  and  _14
REMARK    7  A    between atoms: _14  and  _15
REMARK    8  A    between atoms: _14  and  _17
REMARK    9  A    between atoms: _17  and  _18
REMARK   10  A    between atoms: _18  and  _20
REMARK   11  A    between atoms: _20  and  ZN_724
REMARK   12  A    between atoms: _21  and  _23
REMARK   13  A    between atoms: _23  and  _24
REMARK   14  A    between atoms: _23  and  _26
REMARK   15  A    between atoms: _26  and  _27
REMARK   16  A    between atoms: _33  and  _35
REMARK   17  A    between atoms: _35  and  _36
REMARK   18  A    between atoms: _35  and  _38
REMARK   19  A    between atoms: _38  and  _39
REMARK   20  A    between atoms: _44  and  _45
REMARK   21  A    between atoms: _48  and  _49
REMARK   22  A    between atoms: _54  and  _56
REMARK   23  A    between atoms: _56  and  _57
REMARK   24  A    between atoms: _56  and  _59
REMARK   25  A    between atoms: _59  and  _60
REMARK   26  A    between atoms: _66  and  _68
REMARK   27  A    between atoms: _68  and  _69
REMARK   28  A    between atoms: _68  and  _71
REMARK   29  A    between atoms: _71  and  _72
REMARK   30  A    between atoms: _76  and  _77
REMARK   31  A    between atoms: _82  and  _84
REMARK   32  A    between atoms: _89  and  _92
REMARK   33  A    between atoms: _92  and  _93
REMARK   34  A    between atoms: _100  and  _103
REMARK   35  A    between atoms: _101  and  _106
REMARK   36  A    between atoms: _106  and  _108
REMARK   37  A    between atoms: _108  and  _109
REMARK   38  A    between atoms: _108  and  _111
REMARK   39  A    between atoms: _111  and  _112
REMARK   40  A    between atoms: _115  and  _117
REMARK   41  A    between atoms: _117  and  _118
REMARK   42  A    between atoms: _121  and  _123
REMARK   43  A    between atoms: _123  and  _124
REMARK   44  A    between atoms: _123  and  _126
REMARK   45  A    between atoms: _126  and  _127
REMARK   46  A    between atoms: _131  and  ZN_724
REMARK   47  A    between atoms: _132  and  _134
REMARK   48  A    between atoms: _134  and  _135
REMARK   49  A    between atoms: _138  and  _140
REMARK   50  A    between atoms: _140  and  _141
REMARK   51  A    between atoms: _140  and  _143
REMARK   52  A    between atoms: _143  and  _144
REMARK   53  A    between atoms: _149  and  _150
REMARK   54  A    between atoms: _152  and  _154
REMARK   55  A    between atoms: _154  and  _155
REMARK   56  A    between atoms: _158  and  _160
REMARK   57  A    between atoms: _160  and  _161
REMARK   58  A    between atoms: _160  and  _163
REMARK   59  A    between atoms: _163  and  _164
REMARK   60  A    between atoms: _167  and  _169
REMARK   61  A    between atoms: _169  and  _170
REMARK   62  A    between atoms: _172  and  _174
REMARK   63  A    between atoms: _174  and  _175
REMARK   64  A    between atoms: _174  and  _177
REMARK   65  A    between atoms: _177  and  _178
REMARK   66  A    between atoms: _181  and  _183
REMARK   67  A    between atoms: _183  and  _184
REMARK   68  A    between atoms: _183  and  _186
REMARK   69  A    between atoms: _186  and  _187
REMARK   70  A    between atoms: _188  and  ZN_724
REMARK   71  A    between atoms: _192  and  _194
REMARK   72  A    between atoms: _194  and  _195
REMARK   73  A    between atoms: _194  and  _197
REMARK   74  A    between atoms: _197  and  _198
REMARK   75  A    between atoms: _201  and  _203
REMARK   76  A    between atoms: _203  and  _204
REMARK   77  A    between atoms: _203  and  _206
REMARK   78  A    between atoms: _206  and  _207
REMARK   79  A    between atoms: _207  and  _208
REMARK   80  A    between atoms: _211  and  _213
REMARK   81  A    between atoms: _213  and  _214
REMARK   82  A    between atoms: _213  and  _216
REMARK   83  A    between atoms: _216  and  _217
REMARK   84  A    between atoms: _227  and  _229
REMARK   85  A    between atoms: _229  and  _230
REMARK   86  A    between atoms: _232  and  _234
REMARK   87  A    between atoms: _234  and  _235
REMARK   88  A    between atoms: _234  and  _237
REMARK   89  A    between atoms: _237  and  _238
REMARK   90  A    between atoms: _241  and  _243
REMARK   91  A    between atoms: _243  and  _244
REMARK   92  A    between atoms: _243  and  _246
REMARK   93  A    between atoms: _246  and  _247
REMARK   94  A    between atoms: _252  and  _254
REMARK   95  A    between atoms: _254  and  _255
REMARK   96  A    between atoms: _254  and  _257
REMARK   97  A    between atoms: _257  and  _258
REMARK   98  A    between atoms: _261  and  _263
REMARK   99  A    between atoms: _263  and  _264
REMARK  100  A    between atoms: _263  and  _266
REMARK  101  A    between atoms: _266  and  _267
REMARK  102  A    between atoms: _273  and  _275
REMARK  103  A    between atoms: _275  and  _276
REMARK  104  A    between atoms: _275  and  _278
REMARK  105  A    between atoms: _278  and  _279
REMARK  106  A    between atoms: _282  and  _284
REMARK  107  A    between atoms: _284  and  _285
REMARK  108  A    between atoms: _284  and  _287
REMARK  109  A    between atoms: _290  and  _292
REMARK  110  A    between atoms: _292  and  _293
REMARK  111  A    between atoms: _296  and  _298
REMARK  112  A    between atoms: _298  and  _299
REMARK  113  A    between atoms: _302  and  _304
REMARK  114  A    between atoms: _315  and  _318
REMARK  115  A    between atoms: _318  and  _319
REMARK  116  A    between atoms: _319  and  _320
REMARK  117  A    between atoms: _325  and  _328
REMARK  118  A    between atoms: _328  and  _329
REMARK  119  A    between atoms: _339  and  _340
REMARK  120  A    between atoms: _348  and  _350
REMARK  121  A    between atoms: _350  and  _351
REMARK  122  A    between atoms: _350  and  _353
REMARK  123  A    between atoms: _353  and  _354
REMARK  124  A    between atoms: _356  and  _358
REMARK  125  A    between atoms: _358  and  _359
REMARK  126  A    between atoms: _358  and  _361
REMARK  127  A    between atoms: _361  and  _362
REMARK  128  A    between atoms: _366  and  ZN_723
REMARK  129  A    between atoms: _367  and  _369
REMARK  130  A    between atoms: _369  and  _370
REMARK  131  A    between atoms: _369  and  _372
REMARK  132  A    between atoms: _372  and  _373
REMARK  133  A    between atoms: _375  and  _377
REMARK  134  A    between atoms: _377  and  _378
REMARK  135  A    between atoms: _377  and  _380
REMARK  136  A    between atoms: _380  and  _381
REMARK  137  A    between atoms: _386  and  _388
REMARK  138  A    between atoms: _388  and  _389
REMARK  139  A    between atoms: _388  and  _391
REMARK  140  A    between atoms: _391  and  _392
REMARK  141  A    between atoms: _395  and  _397
REMARK  142  A    between atoms: _397  and  _398
REMARK  143  A    between atoms: _397  and  _400
REMARK  144  A    between atoms: _400  and  _401
REMARK  145  A    between atoms: _401  and  _402
REMARK  146  A    between atoms: _405  and  _407
REMARK  147  A    between atoms: _407  and  _408
REMARK  148  A    between atoms: _411  and  _413
REMARK  149  A    between atoms: _413  and  _414
REMARK  150  A    between atoms: _413  and  _416
REMARK  151  A    between atoms: _416  and  _417
REMARK  152  A    between atoms: _420  and  _422
REMARK  153  A    between atoms: _422  and  _423
REMARK  154  A    between atoms: _422  and  _425
REMARK  155  A    between atoms: _425  and  _426
REMARK  156  A    between atoms: _426  and  _427
REMARK  157  A    between atoms: _429  and  _431
REMARK  158  A    between atoms: _431  and  _432
REMARK  159  A    between atoms: _431  and  _434
REMARK  160  A    between atoms: _434  and  _435
REMARK  161  A    between atoms: _440  and  _441
REMARK  162  A    between atoms: _444  and  _445
REMARK  163  A    between atoms: _450  and  _452
REMARK  164  A    between atoms: _452  and  _453
REMARK  165  A    between atoms: _452  and  _455
REMARK  166  A    between atoms: _455  and  _456
REMARK  167  A    between atoms: _459  and  _461
REMARK  168  A    between atoms: _461  and  _462
REMARK  169  A    between atoms: _461  and  _464
REMARK  170  A    between atoms: _464  and  _465
REMARK  171  A    between atoms: _470  and  _471
REMARK  172  A    between atoms: _473  and  _475
REMARK  173  A    between atoms: _475  and  _476
REMARK  174  A    between atoms: _475  and  _478
REMARK  175  A    between atoms: _478  and  _479
REMARK  176  A    between atoms: _484  and  _486
REMARK  177  A    between atoms: _486  and  _487
REMARK  178  A    between atoms: _486  and  _489
REMARK  179  A    between atoms: _489  and  _490
REMARK  180  A    between atoms: _492  and  _494
REMARK  181  A    between atoms: _494  and  _495
REMARK  182  A    between atoms: _494  and  _497
REMARK  183  A    between atoms: _497  and  _498
REMARK  184  A    between atoms: _501  and  _503
REMARK  185  A    between atoms: _503  and  _504
REMARK  186  A    between atoms: _503  and  _506
REMARK  187  A    between atoms: _506  and  _507
REMARK  188  A    between atoms: _510  and  _512
REMARK  189  A    between atoms: _512  and  _513
REMARK  190  A    between atoms: _512  and  _515
REMARK  191  A    between atoms: _515  and  _516
REMARK  192  A    between atoms: _519  and  _521
REMARK  193  A    between atoms: _521  and  _522
REMARK  194  A    between atoms: _521  and  _524
REMARK  195  A    between atoms: _524  and  _525
REMARK  196  A    between atoms: _528  and  _530
REMARK  197  A    between atoms: _530  and  _531
REMARK  198  A    between atoms: _530  and  _533
REMARK  199  A    between atoms: _533  and  _534
REMARK  200  A    between atoms: _534  and  _535
REMARK  201  A    between atoms: _535  and  _536
REMARK  202  A    between atoms: _545  and  _547
REMARK  203  A    between atoms: _547  and  _548
REMARK  204  A    between atoms: _547  and  _550
REMARK  205  A    between atoms: _550  and  _551
REMARK  206  A    between atoms: _557  and  _559
REMARK  207  A    between atoms: _559  and  _560
REMARK  208  A    between atoms: _559  and  _562
REMARK  209  A    between atoms: _562  and  _563
REMARK  210  A    between atoms: _563  and  _564
REMARK  211  A    between atoms: _564  and  _565
REMARK  212  A    between atoms: _574  and  _576
REMARK  213  A    between atoms: _576  and  _577
REMARK  214  A    between atoms: _576  and  _579
REMARK  215  A    between atoms: _579  and  _580
REMARK  216  A    between atoms: _582  and  _584
REMARK  217  A    between atoms: _584  and  _585
REMARK  218  A    between atoms: _584  and  _587
REMARK  219  A    between atoms: _587  and  _588
REMARK  220  A    between atoms: _591  and  _593
REMARK  221  A    between atoms: _593  and  _594
REMARK  222  A    between atoms: _593  and  _596
REMARK  223  A    between atoms: _596  and  _597
REMARK  224  A    between atoms: _601  and  _602
REMARK  225  A    between atoms: _607  and  _609
REMARK  226  A    between atoms: _609  and  _610
REMARK  227  A    between atoms: _609  and  _612
REMARK  228  A    between atoms: _612  and  _613
REMARK  229  A    between atoms: _618  and  _620
REMARK  230  A    between atoms: _620  and  _621
REMARK  231  A    between atoms: _620  and  _623
REMARK  232  A    between atoms: _623  and  _624
REMARK  233  A    between atoms: _627  and  _629
REMARK  234  A    between atoms: _629  and  _630
REMARK  235  A    between atoms: _629  and  _632
REMARK  236  A    between atoms: _632  and  _633
REMARK  237  A    between atoms: _639  and  _641
REMARK  238  A    between atoms: _641  and  _642
REMARK  239  A    between atoms: _641  and  _644
REMARK  240  A    between atoms: _644  and  _645
REMARK  241  A    between atoms: _650  and  _652
REMARK  242  A    between atoms: _652  and  _653
REMARK  243  A    between atoms: _652  and  _655
REMARK  244  A    between atoms: _655  and  _656
REMARK  245  A    between atoms: _658  and  _660
REMARK  246  A    between atoms: _660  and  _661
REMARK  247  A    between atoms: _664  and  _666
REMARK  248  A    between atoms: _666  and  _667
REMARK  249  A    between atoms: _666  and  _669
REMARK  250  A    between atoms: _669  and  _670
REMARK  251  A    between atoms: _675  and  _677
REMARK  252  A    between atoms: _677  and  _678
REMARK  253  A    between atoms: _677  and  _680
REMARK  254  A    between atoms: _680  and  _681
REMARK  255  A    between atoms: _684  and  _686
REMARK  256  A    between atoms: _686  and  _687
REMARK  257  A    between atoms: _686  and  _689
REMARK  258  A    between atoms: _689  and  _690
REMARK  259  A    between atoms: _690  and  _691
REMARK  260  A    between atoms: _693  and  _695
REMARK  261  A    between atoms: _695  and  _696
REMARK  262  A    between atoms: _695  and  _698
REMARK  263  A    between atoms: _698  and  _699
REMARK  264  A    between atoms: _704  and  _705
REMARK  265  A    between atoms: _708  and  _709
REMARK  266  A    between atoms: _714  and  _716
REMARK  267  A    between atoms: _716  and  _717
REMARK  268  A    between atoms: _716  and  _719
REMARK  269  A    between atoms: _719  and  _720
REMARK                            x       y       z     vdW  Elec       q    Type
REMARK                         _______ _______ _______ _____ _____    ______ ____
ROOT
ATOM      1  O   HOH     1      33.087  41.814  25.771  0.00  0.00    +0.000 OA
ENDROOT
TORSDOF 0
REMARK  Name = ../refined-set-2016/1hfs/1hfs_pocket.pdb
REMARK  269 active torsions:
REMARK  status: ('A' for Active; 'I' for Inactive)
REMARK    1  A    between atoms: _1  and  _3
REMARK    2  A    between atoms: _3  and  _4
REMARK    3  A    between atoms: _3  and  _6
REMARK    4  A    between atoms: _6  and  _7
REMARK    5  A    between atoms: _11  and  ZN_724
REMARK    6  A    between atoms: _12  and  _14
REMARK    7  A    between atoms: _14  and  _15
REMARK    8  A    between atoms: _14  and  _17
REMARK    9  A    between atoms: _17  and  _18
REMARK   10  A    between atoms: _18  and  _20
REMARK   11  A    between atoms: _20  and  ZN_724
REMARK   12  A    between atoms: _21  and  _23
REMARK   13  A    between atoms: _23  and  _24
REMARK   14  A    between atoms: _23  and  _26
REMARK   15  A    between atoms: _26  and  _27
REMARK   16  A    between atoms: _33  and  _35
REMARK   17  A    between atoms: _35  and  _36
REMARK   18  A    between atoms: _35  and  _38
REMARK   19  A    between atoms: _38  and  _39
REMARK   20  A    between atoms: _44  and  _45
REMARK   21  A    between atoms: _48  and  _49
REMARK   22  A    between atoms: _54  and  _56
REMARK   23  A    between atoms: _56  and  _57
REMARK   24  A    between atoms: _56  and  _59
REMARK   25  A    between atoms: _59  and  _60
REMARK   26  A    between atoms: _66  and  _68
REMARK   27  A    between atoms: _68  and  _69
REMARK   28  A    between atoms: _68  and  _71
REMARK   29  A    between atoms: _71  and  _72
REMARK   30  A    between atoms: _76  and  _77
REMARK   31  A    between atoms: _82  and  _84
REMARK   32  A    between atoms: _89  and  _92
REMARK   33  A    between atoms: _92  and  _93
REMARK   34  A    between atoms: _100  and  _103
REMARK   35  A    between atoms: _101  and  _106
REMARK   36  A    between atoms: _106  and  _108
REMARK   37  A    between atoms: _108  and  _109
REMARK   38  A    between atoms: _108  and  _111
REMARK   39  A    between atoms: _111  and  _112
REMARK   40  A    between atoms: _115  and  _117
REMARK   41  A    between atoms: _117  and  _118
REMARK   42  A    between atoms: _121  and  _123
REMARK   43  A    between atoms: _123  and  _124
REMARK   44  A    between atoms: _123  and  _126
REMARK   45  A    between atoms: _126  and  _127
REMARK   46  A    between atoms: _131  and  ZN_724
REMARK   47  A    between atoms: _132  and  _134
REMARK   48  A    between atoms: _134  and  _135
REMARK   49  A    between atoms: _138  and  _140
REMARK   50  A    between atoms: _140  and  _141
REMARK   51  A    between atoms: _140  and  _143
REMARK   52  A    between atoms: _143  and  _144
REMARK   53  A    between atoms: _149  and  _150
REMARK   54  A    between atoms: _152  and  _154
REMARK   55  A    between atoms: _154  and  _155
REMARK   56  A    between atoms: _158  and  _160
REMARK   57  A    between atoms: _160  and  _161
REMARK   58  A    between atoms: _160  and  _163
REMARK   59  A    between atoms: _163  and  _164
REMARK   60  A    between atoms: _167  and  _169
REMARK   61  A    between atoms: _169  and  _170
REMARK   62  A    between atoms: _172  and  _174
REMARK   63  A    between atoms: _174  and  _175
REMARK   64  A    between atoms: _174  and  _177
REMARK   65  A    between atoms: _177  and  _178
REMARK   66  A    between atoms: _181  and  _183
REMARK   67  A    between atoms: _183  and  _184
REMARK   68  A    between atoms: _183  and  _186
REMARK   69  A    between atoms: _186  and  _187
REMARK   70  A    between atoms: _188  and  ZN_724
REMARK   71  A    between atoms: _192  and  _194
REMARK   72  A    between atoms: _194  and  _195
REMARK   73  A    between atoms: _194  and  _197
REMARK   74  A    between atoms: _197  and  _198
REMARK   75  A    between atoms: _201  and  _203
REMARK   76  A    between atoms: _203  and  _204
REMARK   77  A    between atoms: _203  and  _206
REMARK   78  A    between atoms: _206  and  _207
REMARK   79  A    between atoms: _207  and  _208
REMARK   80  A    between atoms: _211  and  _213
REMARK   81  A    between atoms: _213  and  _214
REMARK   82  A    between atoms: _213  and  _216
REMARK   83  A    between atoms: _216  and  _217
REMARK   84  A    between atoms: _227  and  _229
REMARK   85  A    between atoms: _229  and  _230
REMARK   86  A    between atoms: _232  and  _234
REMARK   87  A    between atoms: _234  and  _235
REMARK   88  A    between atoms: _234  and  _237
REMARK   89  A    between atoms: _237  and  _238
REMARK   90  A    between atoms: _241  and  _243
REMARK   91  A    between atoms: _243  and  _244
REMARK   92  A    between atoms: _243  and  _246
REMARK   93  A    between atoms: _246  and  _247
REMARK   94  A    between atoms: _252  and  _254
REMARK   95  A    between atoms: _254  and  _255
REMARK   96  A    between atoms: _254  and  _257
REMARK   97  A    between atoms: _257  and  _258
REMARK   98  A    between atoms: _261  and  _263
REMARK   99  A    between atoms: _263  and  _264
REMARK  100  A    between atoms: _263  and  _266
REMARK  101  A    between atoms: _266  and  _267
REMARK  102  A    between atoms: _273  and  _275
REMARK  103  A    between atoms: _275  and  _276
REMARK  104  A    between atoms: _275  and  _278
REMARK  105  A    between atoms: _278  and  _279
REMARK  106  A    between atoms: _282  and  _284
REMARK  107  A    between atoms: _284  and  _285
REMARK  108  A    between atoms: _284  and  _287
REMARK  109  A    between atoms: _290  and  _292
REMARK  110  A    between atoms: _292  and  _293
REMARK  111  A    between atoms: _296  and  _298
REMARK  112  A    between atoms: _298  and  _299
REMARK  113  A    between atoms: _302  and  _304
REMARK  114  A    between atoms: _315  and  _318
REMARK  115  A    between atoms: _318  and  _319
REMARK  116  A    between atoms: _319  and  _320
REMARK  117  A    between atoms: _325  and  _328
REMARK  118  A    between atoms: _328  and  _329
REMARK  119  A    between atoms: _339  and  _340
REMARK  120  A    between atoms: _348  and  _350
REMARK  121  A    between atoms: _350  and  _351
REMARK  122  A    between atoms: _350  and  _353
REMARK  123  A    between atoms: _353  and  _354
REMARK  124  A    between atoms: _356  and  _358
REMARK  125  A    between atoms: _358  and  _359
REMARK  126  A    between atoms: _358  and  _361
REMARK  127  A    between atoms: _361  and  _362
REMARK  128  A    between atoms: _366  and  ZN_723
REMARK  129  A    between atoms: _367  and  _369
REMARK  130  A    between atoms: _369  and  _370
REMARK  131  A    between atoms: _369  and  _372
REMARK  132  A    between atoms: _372  and  _373
REMARK  133  A    between atoms: _375  and  _377
REMARK  134  A    between atoms: _377  and  _378
REMARK  135  A    between atoms: _377  and  _380
REMARK  136  A    between atoms: _380  and  _381
REMARK  137  A    between atoms: _386  and  _388
REMARK  138  A    between atoms: _388  and  _389
REMARK  139  A    between atoms: _388  and  _391
REMARK  140  A    between atoms: _391  and  _392
REMARK  141  A    between atoms: _395  and  _397
REMARK  142  A    between atoms: _397  and  _398
REMARK  143  A    between atoms: _397  and  _400
REMARK  144  A    between atoms: _400  and  _401
REMARK  145  A    between atoms: _401  and  _402
REMARK  146  A    between atoms: _405  and  _407
REMARK  147  A    between atoms: _407  and  _408
REMARK  148  A    between atoms: _411  and  _413
REMARK  149  A    between atoms: _413  and  _414
REMARK  150  A    between atoms: _413  and  _416
REMARK  151  A    between atoms: _416  and  _417
REMARK  152  A    between atoms: _420  and  _422
REMARK  153  A    between atoms: _422  and  _423
REMARK  154  A    between atoms: _422  and  _425
REMARK  155  A    between atoms: _425  and  _426
REMARK  156  A    between atoms: _426  and  _427
REMARK  157  A    between atoms: _429  and  _431
REMARK  158  A    between atoms: _431  and  _432
REMARK  159  A    between atoms: _431  and  _434
REMARK  160  A    between atoms: _434  and  _435
REMARK  161  A    between atoms: _440  and  _441
REMARK  162  A    between atoms: _444  and  _445
REMARK  163  A    between atoms: _450  and  _452
REMARK  164  A    between atoms: _452  and  _453
REMARK  165  A    between atoms: _452  and  _455
REMARK  166  A    between atoms: _455  and  _456
REMARK  167  A    between atoms: _459  and  _461
REMARK  168  A    between atoms: _461  and  _462
REMARK  169  A    between atoms: _461  and  _464
REMARK  170  A    between atoms: _464  and  _465
REMARK  171  A    between atoms: _470  and  _471
REMARK  172  A    between atoms: _473  and  _475
REMARK  173  A    between atoms: _475  and  _476
REMARK  174  A    between atoms: _475  and  _478
REMARK  175  A    between atoms: _478  and  _479
REMARK  176  A    between atoms: _484  and  _486
REMARK  177  A    between atoms: _486  and  _487
REMARK  178  A    between atoms: _486  and  _489
REMARK  179  A    between atoms: _489  and  _490
REMARK  180  A    between atoms: _492  and  _494
REMARK  181  A    between atoms: _494  and  _495
REMARK  182  A    between atoms: _494  and  _497
REMARK  183  A    between atoms: _497  and  _498
REMARK  184  A    between atoms: _501  and  _503
REMARK  185  A    between atoms: _503  and  _504
REMARK  186  A    between atoms: _503  and  _506
REMARK  187  A    between atoms: _506  and  _507
REMARK  188  A    between atoms: _510  and  _512
REMARK  189  A    between atoms: _512  and  _513
REMARK  190  A    between atoms: _512  and  _515
REMARK  191  A    between atoms: _515  and  _516
REMARK  192  A    between atoms: _519  and  _521
REMARK  193  A    between atoms: _521  and  _522
REMARK  194  A    between atoms: _521  and  _524
REMARK  195  A    between atoms: _524  and  _525
REMARK  196  A    between atoms: _528  and  _530
REMARK  197  A    between atoms: _530  and  _531
REMARK  198  A    between atoms: _530  and  _533
REMARK  199  A    between atoms: _533  and  _534
REMARK  200  A    between atoms: _534  and  _535
REMARK  201  A    between atoms: _535  and  _536
REMARK  202  A    between atoms: _545  and  _547
REMARK  203  A    between atoms: _547  and  _548
REMARK  204  A    between atoms: _547  and  _550
REMARK  205  A    between atoms: _550  and  _551
REMARK  206  A    between atoms: _557  and  _559
REMARK  207  A    between atoms: _559  and  _560
REMARK  208  A    between atoms: _559  and  _562
REMARK  209  A    between atoms: _562  and  _563
REMARK  210  A    between atoms: _563  and  _564
REMARK  211  A    between atoms: _564  and  _565
REMARK  212  A    between atoms: _574  and  _576
REMARK  213  A    between atoms: _576  and  _577
REMARK  214  A    between atoms: _576  and  _579
REMARK  215  A    between atoms: _579  and  _580
REMARK  216  A    between atoms: _582  and  _584
REMARK  217  A    between atoms: _584  and  _585
REMARK  218  A    between atoms: _584  and  _587
REMARK  219  A    between atoms: _587  and  _588
REMARK  220  A    between atoms: _591  and  _593
REMARK  221  A    between atoms: _593  and  _594
REMARK  222  A    between atoms: _593  and  _596
REMARK  223  A    between atoms: _596  and  _597
REMARK  224  A    between atoms: _601  and  _602
REMARK  225  A    between atoms: _607  and  _609
REMARK  226  A    between atoms: _609  and  _610
REMARK  227  A    between atoms: _609  and  _612
REMARK  228  A    between atoms: _612  and  _613
REMARK  229  A    between atoms: _618  and  _620
REMARK  230  A    between atoms: _620  and  _621
REMARK  231  A    between atoms: _620  and  _623
REMARK  232  A    between atoms: _623  and  _624
REMARK  233  A    between atoms: _627  and  _629
REMARK  234  A    between atoms: _629  and  _630
REMARK  235  A    between atoms: _629  and  _632
REMARK  236  A    between atoms: _632  and  _633
REMARK  237  A    between atoms: _639  and  _641
REMARK  238  A    between atoms: _641  and  _642
REMARK  239  A    between atoms: _641  and  _644
REMARK  240  A    between atoms: _644  and  _645
REMARK  241  A    between atoms: _650  and  _652
REMARK  242  A    between atoms: _652  and  _653
REMARK  243  A    between atoms: _652  and  _655
REMARK  244  A    between atoms: _655  and  _656
REMARK  245  A    between atoms: _658  and  _660
REMARK  246  A    between atoms: _660  and  _661
REMARK  247  A    between atoms: _664  and  _666
REMARK  248  A    between atoms: _666  and  _667
REMARK  249  A    between atoms: _666  and  _669
REMARK  250  A    between atoms: _669  and  _670
REMARK  251  A    between atoms: _675  and  _677
REMARK  252  A    between atoms: _677  and  _678
REMARK  253  A    between atoms: _677  and  _680
REMARK  254  A    between atoms: _680  and  _681
REMARK  255  A    between atoms: _684  and  _686
REMARK  256  A    between atoms: _686  and  _687
REMARK  257  A    between atoms: _686  and  _689
REMARK  258  A    between atoms: _689  and  _690
REMARK  259  A    between atoms: _690  and  _691
REMARK  260  A    between atoms: _693  and  _695
REMARK  261  A    between atoms: _695  and  _696
REMARK  262  A    between atoms: _695  and  _698
REMARK  263  A    between atoms: _698  and  _699
REMARK  264  A    between atoms: _704  and  _705
REMARK  265  A    between atoms: _708  and  _709
REMARK  266  A    between atoms: _714  and  _716
REMARK  267  A    between atoms: _716  and  _717
REMARK  268  A    between atoms: _716  and  _719
REMARK  269  A    between atoms: _719  and  _720
REMARK                            x       y       z     vdW  Elec       q    Type
REMARK                         _______ _______ _______ _____ _____    ______ ____
ROOT
ATOM      1  O   HOH     1      34.347  42.436  16.703  0.00  0.00    +0.000 OA
ENDROOT
TORSDOF 0
REMARK  Name = ../refined-set-2016/1hfs/1hfs_pocket.pdb
REMARK  269 active torsions:
REMARK  status: ('A' for Active; 'I' for Inactive)
REMARK    1  A    between atoms: _1  and  _3
REMARK    2  A    between atoms: _3  and  _4
REMARK    3  A    between atoms: _3  and  _6
REMARK    4  A    between atoms: _6  and  _7
REMARK    5  A    between atoms: _11  and  ZN_724
REMARK    6  A    between atoms: _12  and  _14
REMARK    7  A    between atoms: _14  and  _15
REMARK    8  A    between atoms: _14  and  _17
REMARK    9  A    between atoms: _17  and  _18
REMARK   10  A    between atoms: _18  and  _20
REMARK   11  A    between atoms: _20  and  ZN_724
REMARK   12  A    between atoms: _21  and  _23
REMARK   13  A    between atoms: _23  and  _24
REMARK   14  A    between atoms: _23  and  _26
REMARK   15  A    between atoms: _26  and  _27
REMARK   16  A    between atoms: _33  and  _35
REMARK   17  A    between atoms: _35  and  _36
REMARK   18  A    between atoms: _35  and  _38
REMARK   19  A    between atoms: _38  and  _39
REMARK   20  A    between atoms: _44  and  _45
REMARK   21  A    between atoms: _48  and  _49
REMARK   22  A    between atoms: _54  and  _56
REMARK   23  A    between atoms: _56  and  _57
REMARK   24  A    between atoms: _56  and  _59
REMARK   25  A    between atoms: _59  and  _60
REMARK   26  A    between atoms: _66  and  _68
REMARK   27  A    between atoms: _68  and  _69
REMARK   28  A    between atoms: _68  and  _71
REMARK   29  A    between atoms: _71  and  _72
REMARK   30  A    between atoms: _76  and  _77
REMARK   31  A    between atoms: _82  and  _84
REMARK   32  A    between atoms: _89  and  _92
REMARK   33  A    between atoms: _92  and  _93
REMARK   34  A    between atoms: _100  and  _103
REMARK   35  A    between atoms: _101  and  _106
REMARK   36  A    between atoms: _106  and  _108
REMARK   37  A    between atoms: _108  and  _109
REMARK   38  A    between atoms: _108  and  _111
REMARK   39  A    between atoms: _111  and  _112
REMARK   40  A    between atoms: _115  and  _117
REMARK   41  A    between atoms: _117  and  _118
REMARK   42  A    between atoms: _121  and  _123
REMARK   43  A    between atoms: _123  and  _124
REMARK   44  A    between atoms: _123  and  _126
REMARK   45  A    between atoms: _126  and  _127
REMARK   46  A    between atoms: _131  and  ZN_724
REMARK   47  A    between atoms: _132  and  _134
REMARK   48  A    between atoms: _134  and  _135
REMARK   49  A    between atoms: _138  and  _140
REMARK   50  A    between atoms: _140  and  _141
REMARK   51  A    between atoms: _140  and  _143
REMARK   52  A    between atoms: _143  and  _144
REMARK   53  A    between atoms: _149  and  _150
REMARK   54  A    between atoms: _152  and  _154
REMARK   55  A    between atoms: _154  and  _155
REMARK   56  A    between atoms: _158  and  _160
REMARK   57  A    between atoms: _160  and  _161
REMARK   58  A    between atoms: _160  and  _163
REMARK   59  A    between atoms: _163  and  _164
REMARK   60  A    between atoms: _167  and  _169
REMARK   61  A    between atoms: _169  and  _170
REMARK   62  A    between atoms: _172  and  _174
REMARK   63  A    between atoms: _174  and  _175
REMARK   64  A    between atoms: _174  and  _177
REMARK   65  A    between atoms: _177  and  _178
REMARK   66  A    between atoms: _181  and  _183
REMARK   67  A    between atoms: _183  and  _184
REMARK   68  A    between atoms: _183  and  _186
REMARK   69  A    between atoms: _186  and  _187
REMARK   70  A    between atoms: _188  and  ZN_724
REMARK   71  A    between atoms: _192  and  _194
REMARK   72  A    between atoms: _194  and  _195
REMARK   73  A    between atoms: _194  and  _197
REMARK   74  A    between atoms: _197  and  _198
REMARK   75  A    between atoms: _201  and  _203
REMARK   76  A    between atoms: _203  and  _204
REMARK   77  A    between atoms: _203  and  _206
REMARK   78  A    between atoms: _206  and  _207
REMARK   79  A    between atoms: _207  and  _208
REMARK   80  A    between atoms: _211  and  _213
REMARK   81  A    between atoms: _213  and  _214
REMARK   82  A    between atoms: _213  and  _216
REMARK   83  A    between atoms: _216  and  _217
REMARK   84  A    between atoms: _227  and  _229
REMARK   85  A    between atoms: _229  and  _230
REMARK   86  A    between atoms: _232  and  _234
REMARK   87  A    between atoms: _234  and  _235
REMARK   88  A    between atoms: _234  and  _237
REMARK   89  A    between atoms: _237  and  _238
REMARK   90  A    between atoms: _241  and  _243
REMARK   91  A    between atoms: _243  and  _244
REMARK   92  A    between atoms: _243  and  _246
REMARK   93  A    between atoms: _246  and  _247
REMARK   94  A    between atoms: _252  and  _254
REMARK   95  A    between atoms: _254  and  _255
REMARK   96  A    between atoms: _254  and  _257
REMARK   97  A    between atoms: _257  and  _258
REMARK   98  A    between atoms: _261  and  _263
REMARK   99  A    between atoms: _263  and  _264
REMARK  100  A    between atoms: _263  and  _266
REMARK  101  A    between atoms: _266  and  _267
REMARK  102  A    between atoms: _273  and  _275
REMARK  103  A    between atoms: _275  and  _276
REMARK  104  A    between atoms: _275  and  _278
REMARK  105  A    between atoms: _278  and  _279
REMARK  106  A    between atoms: _282  and  _284
REMARK  107  A    between atoms: _284  and  _285
REMARK  108  A    between atoms: _284  and  _287
REMARK  109  A    between atoms: _290  and  _292
REMARK  110  A    between atoms: _292  and  _293
REMARK  111  A    between atoms: _296  and  _298
REMARK  112  A    between atoms: _298  and  _299
REMARK  113  A    between atoms: _302  and  _304
REMARK  114  A    between atoms: _315  and  _318
REMARK  115  A    between atoms: _318  and  _319
REMARK  116  A    between atoms: _319  and  _320
REMARK  117  A    between atoms: _325  and  _328
REMARK  118  A    between atoms: _328  and  _329
REMARK  119  A    between atoms: _339  and  _340
REMARK  120  A    between atoms: _348  and  _350
REMARK  121  A    between atoms: _350  and  _351
REMARK  122  A    between atoms: _350  and  _353
REMARK  123  A    between atoms: _353  and  _354
REMARK  124  A    between atoms: _356  and  _358
REMARK  125  A    between atoms: _358  and  _359
REMARK  126  A    between atoms: _358  and  _361
REMARK  127  A    between atoms: _361  and  _362
REMARK  128  A    between atoms: _366  and  ZN_723
REMARK  129  A    between atoms: _367  and  _369
REMARK  130  A    between atoms: _369  and  _370
REMARK  131  A    between atoms: _369  and  _372
REMARK  132  A    between atoms: _372  and  _373
REMARK  133  A    between atoms: _375  and  _377
REMARK  134  A    between atoms: _377  and  _378
REMARK  135  A    between atoms: _377  and  _380
REMARK  136  A    between atoms: _380  and  _381
REMARK  137  A    between atoms: _386  and  _388
REMARK  138  A    between atoms: _388  and  _389
REMARK  139  A    between atoms: _388  and  _391
REMARK  140  A    between atoms: _391  and  _392
REMARK  141  A    between atoms: _395  and  _397
REMARK  142  A    between atoms: _397  and  _398
REMARK  143  A    between atoms: _397  and  _400
REMARK  144  A    between atoms: _400  and  _401
REMARK  145  A    between atoms: _401  and  _402
REMARK  146  A    between atoms: _405  and  _407
REMARK  147  A    between atoms: _407  and  _408
REMARK  148  A    between atoms: _411  and  _413
REMARK  149  A    between atoms: _413  and  _414
REMARK  150  A    between atoms: _413  and  _416
REMARK  151  A    between atoms: _416  and  _417
REMARK  152  A    between atoms: _420  and  _422
REMARK  153  A    between atoms: _422  and  _423
REMARK  154  A    between atoms: _422  and  _425
REMARK  155  A    between atoms: _425  and  _426
REMARK  156  A    between atoms: _426  and  _427
REMARK  157  A    between atoms: _429  and  _431
REMARK  158  A    between atoms: _431  and  _432
REMARK  159  A    between atoms: _431  and  _434
REMARK  160  A    between atoms: _434  and  _435
REMARK  161  A    between atoms: _440  and  _441
REMARK  162  A    between atoms: _444  and  _445
REMARK  163  A    between atoms: _450  and  _452
REMARK  164  A    between atoms: _452  and  _453
REMARK  165  A    between atoms: _452  and  _455
REMARK  166  A    between atoms: _455  and  _456
REMARK  167  A    between atoms: _459  and  _461
REMARK  168  A    between atoms: _461  and  _462
REMARK  169  A    between atoms: _461  and  _464
REMARK  170  A    between atoms: _464  and  _465
REMARK  171  A    between atoms: _470  and  _471
REMARK  172  A    between atoms: _473  and  _475
REMARK  173  A    between atoms: _475  and  _476
REMARK  174  A    between atoms: _475  and  _478
REMARK  175  A    between atoms: _478  and  _479
REMARK  176  A    between atoms: _484  and  _486
REMARK  177  A    between atoms: _486  and  _487
REMARK  178  A    between atoms: _486  and  _489
REMARK  179  A    between atoms: _489  and  _490
REMARK  180  A    between atoms: _492  and  _494
REMARK  181  A    between atoms: _494  and  _495
REMARK  182  A    between atoms: _494  and  _497
REMARK  183  A    between atoms: _497  and  _498
REMARK  184  A    between atoms: _501  and  _503
REMARK  185  A    between atoms: _503  and  _504
REMARK  186  A    between atoms: _503  and  _506
REMARK  187  A    between atoms: _506  and  _507
REMARK  188  A    between atoms: _510  and  _512
REMARK  189  A    between atoms: _512  and  _513
REMARK  190  A    between atoms: _512  and  _515
REMARK  191  A    between atoms: _515  and  _516
REMARK  192  A    between atoms: _519  and  _521
REMARK  193  A    between atoms: _521  and  _522
REMARK  194  A    between atoms: _521  and  _524
REMARK  195  A    between atoms: _524  and  _525
REMARK  196  A    between atoms: _528  and  _530
REMARK  197  A    between atoms: _530  and  _531
REMARK  198  A    between atoms: _530  and  _533
REMARK  199  A    between atoms: _533  and  _534
REMARK  200  A    between atoms: _534  and  _535
REMARK  201  A    between atoms: _535  and  _536
REMARK  202  A    between atoms: _545  and  _547
REMARK  203  A    between atoms: _547  and  _548
REMARK  204  A    between atoms: _547  and  _550
REMARK  205  A    between atoms: _550  and  _551
REMARK  206  A    between atoms: _557  and  _559
REMARK  207  A    between atoms: _559  and  _560
REMARK  208  A    between atoms: _559  and  _562
REMARK  209  A    between atoms: _562  and  _563
REMARK  210  A    between atoms: _563  and  _564
REMARK  211  A    between atoms: _564  and  _565
REMARK  212  A    between atoms: _574  and  _576
REMARK  213  A    between atoms: _576  and  _577
REMARK  214  A    between atoms: _576  and  _579
REMARK  215  A    between atoms: _579  and  _580
REMARK  216  A    between atoms: _582  and  _584
REMARK  217  A    between atoms: _584  and  _585
REMARK  218  A    between atoms: _584  and  _587
REMARK  219  A    between atoms: _587  and  _588
REMARK  220  A    between atoms: _591  and  _593
REMARK  221  A    between atoms: _593  and  _594
REMARK  222  A    between atoms: _593  and  _596
REMARK  223  A    between atoms: _596  and  _597
REMARK  224  A    between atoms: _601  and  _602
REMARK  225  A    between atoms: _607  and  _609
REMARK  226  A    between atoms: _609  and  _610
REMARK  227  A    between atoms: _609  and  _612
REMARK  228  A    between atoms: _612  and  _613
REMARK  229  A    between atoms: _618  and  _620
REMARK  230  A    between atoms: _620  and  _621
REMARK  231  A    between atoms: _620  and  _623
REMARK  232  A    between atoms: _623  and  _624
REMARK  233  A    between atoms: _627  and  _629
REMARK  234  A    between atoms: _629  and  _630
REMARK  235  A    between atoms: _629  and  _632
REMARK  236  A    between atoms: _632  and  _633
REMARK  237  A    between atoms: _639  and  _641
REMARK  238  A    between atoms: _641  and  _642
REMARK  239  A    between atoms: _641  and  _644
REMARK  240  A    between atoms: _644  and  _645
REMARK  241  A    between atoms: _650  and  _652
REMARK  242  A    between atoms: _652  and  _653
REMARK  243  A    between atoms: _652  and  _655
REMARK  244  A    between atoms: _655  and  _656
REMARK  245  A    between atoms: _658  and  _660
REMARK  246  A    between atoms: _660  and  _661
REMARK  247  A    between atoms: _664  and  _666
REMARK  248  A    between atoms: _666  and  _667
REMARK  249  A    between atoms: _666  and  _669
REMARK  250  A    between atoms: _669  and  _670
REMARK  251  A    between atoms: _675  and  _677
REMARK  252  A    between atoms: _677  and  _678
REMARK  253  A    between atoms: _677  and  _680
REMARK  254  A    between atoms: _680  and  _681
REMARK  255  A    between atoms: _684  and  _686
REMARK  256  A    between atoms: _686  and  _687
REMARK  257  A    between atoms: _686  and  _689
REMARK  258  A    between atoms: _689  and  _690
REMARK  259  A    between atoms: _690  and  _691
REMARK  260  A    between atoms: _693  and  _695
REMARK  261  A    between atoms: _695  and  _696
REMARK  262  A    between atoms: _695  and  _698
REMARK  263  A    between atoms: _698  and  _699
REMARK  264  A    between atoms: _704  and  _705
REMARK  265  A    between atoms: _708  and  _709
REMARK  266  A    between atoms: _714  and  _716
REMARK  267  A    between atoms: _716  and  _717
REMARK  268  A    between atoms: _716  and  _719
REMARK  269  A    between atoms: _719  and  _720
REMARK                            x       y       z     vdW  Elec       q    Type
REMARK                         _______ _______ _______ _____ _____    ______ ____
ROOT
ATOM      1  O   HOH     1      42.007  41.279  22.020  0.00  0.00    +0.000 OA
ENDROOT
TORSDOF 0
REMARK  Name = ../refined-set-2016/1hfs/1hfs_pocket.pdb
REMARK  269 active torsions:
REMARK  status: ('A' for Active; 'I' for Inactive)
REMARK    1  A    between atoms: _1  and  _3
REMARK    2  A    between atoms: _3  and  _4
REMARK    3  A    between atoms: _3  and  _6
REMARK    4  A    between atoms: _6  and  _7
REMARK    5  A    between atoms: _11  and  ZN_724
REMARK    6  A    between atoms: _12  and  _14
REMARK    7  A    between atoms: _14  and  _15
REMARK    8  A    between atoms: _14  and  _17
REMARK    9  A    between atoms: _17  and  _18
REMARK   10  A    between atoms: _18  and  _20
REMARK   11  A    between atoms: _20  and  ZN_724
REMARK   12  A    between atoms: _21  and  _23
REMARK   13  A    between atoms: _23  and  _24
REMARK   14  A    between atoms: _23  and  _26
REMARK   15  A    between atoms: _26  and  _27
REMARK   16  A    between atoms: _33  and  _35
REMARK   17  A    between atoms: _35  and  _36
REMARK   18  A    between atoms: _35  and  _38
REMARK   19  A    between atoms: _38  and  _39
REMARK   20  A    between atoms: _44  and  _45
REMARK   21  A    between atoms: _48  and  _49
REMARK   22  A    between atoms: _54  and  _56
REMARK   23  A    between atoms: _56  and  _57
REMARK   24  A    between atoms: _56  and  _59
REMARK   25  A    between atoms: _59  and  _60
REMARK   26  A    between atoms: _66  and  _68
REMARK   27  A    between atoms: _68  and  _69
REMARK   28  A    between atoms: _68  and  _71
REMARK   29  A    between atoms: _71  and  _72
REMARK   30  A    between atoms: _76  and  _77
REMARK   31  A    between atoms: _82  and  _84
REMARK   32  A    between atoms: _89  and  _92
REMARK   33  A    between atoms: _92  and  _93
REMARK   34  A    between atoms: _100  and  _103
REMARK   35  A    between atoms: _101  and  _106
REMARK   36  A    between atoms: _106  and  _108
REMARK   37  A    between atoms: _108  and  _109
REMARK   38  A    between atoms: _108  and  _111
REMARK   39  A    between atoms: _111  and  _112
REMARK   40  A    between atoms: _115  and  _117
REMARK   41  A    between atoms: _117  and  _118
REMARK   42  A    between atoms: _121  and  _123
REMARK   43  A    between atoms: _123  and  _124
REMARK   44  A    between atoms: _123  and  _126
REMARK   45  A    between atoms: _126  and  _127
REMARK   46  A    between atoms: _131  and  ZN_724
REMARK   47  A    between atoms: _132  and  _134
REMARK   48  A    between atoms: _134  and  _135
REMARK   49  A    between atoms: _138  and  _140
REMARK   50  A    between atoms: _140  and  _141
REMARK   51  A    between atoms: _140  and  _143
REMARK   52  A    between atoms: _143  and  _144
REMARK   53  A    between atoms: _149  and  _150
REMARK   54  A    between atoms: _152  and  _154
REMARK   55  A    between atoms: _154  and  _155
REMARK   56  A    between atoms: _158  and  _160
REMARK   57  A    between atoms: _160  and  _161
REMARK   58  A    between atoms: _160  and  _163
REMARK   59  A    between atoms: _163  and  _164
REMARK   60  A    between atoms: _167  and  _169
REMARK   61  A    between atoms: _169  and  _170
REMARK   62  A    between atoms: _172  and  _174
REMARK   63  A    between atoms: _174  and  _175
REMARK   64  A    between atoms: _174  and  _177
REMARK   65  A    between atoms: _177  and  _178
REMARK   66  A    between atoms: _181  and  _183
REMARK   67  A    between atoms: _183  and  _184
REMARK   68  A    between atoms: _183  and  _186
REMARK   69  A    between atoms: _186  and  _187
REMARK   70  A    between atoms: _188  and  ZN_724
REMARK   71  A    between atoms: _192  and  _194
REMARK   72  A    between atoms: _194  and  _195
REMARK   73  A    between atoms: _194  and  _197
REMARK   74  A    between atoms: _197  and  _198
REMARK   75  A    between atoms: _201  and  _203
REMARK   76  A    between atoms: _203  and  _204
REMARK   77  A    between atoms: _203  and  _206
REMARK   78  A    between atoms: _206  and  _207
REMARK   79  A    between atoms: _207  and  _208
REMARK   80  A    between atoms: _211  and  _213
REMARK   81  A    between atoms: _213  and  _214
REMARK   82  A    between atoms: _213  and  _216
REMARK   83  A    between atoms: _216  and  _217
REMARK   84  A    between atoms: _227  and  _229
REMARK   85  A    between atoms: _229  and  _230
REMARK   86  A    between atoms: _232  and  _234
REMARK   87  A    between atoms: _234  and  _235
REMARK   88  A    between atoms: _234  and  _237
REMARK   89  A    between atoms: _237  and  _238
REMARK   90  A    between atoms: _241  and  _243
REMARK   91  A    between atoms: _243  and  _244
REMARK   92  A    between atoms: _243  and  _246
REMARK   93  A    between atoms: _246  and  _247
REMARK   94  A    between atoms: _252  and  _254
REMARK   95  A    between atoms: _254  and  _255
REMARK   96  A    between atoms: _254  and  _257
REMARK   97  A    between atoms: _257  and  _258
REMARK   98  A    between atoms: _261  and  _263
REMARK   99  A    between atoms: _263  and  _264
REMARK  100  A    between atoms: _263  and  _266
REMARK  101  A    between atoms: _266  and  _267
REMARK  102  A    between atoms: _273  and  _275
REMARK  103  A    between atoms: _275  and  _276
REMARK  104  A    between atoms: _275  and  _278
REMARK  105  A    between atoms: _278  and  _279
REMARK  106  A    between atoms: _282  and  _284
REMARK  107  A    between atoms: _284  and  _285
REMARK  108  A    between atoms: _284  and  _287
REMARK  109  A    between atoms: _290  and  _292
REMARK  110  A    between atoms: _292  and  _293
REMARK  111  A    between atoms: _296  and  _298
REMARK  112  A    between atoms: _298  and  _299
REMARK  113  A    between atoms: _302  and  _304
REMARK  114  A    between atoms: _315  and  _318
REMARK  115  A    between atoms: _318  and  _319
REMARK  116  A    between atoms: _319  and  _320
REMARK  117  A    between atoms: _325  and  _328
REMARK  118  A    between atoms: _328  and  _329
REMARK  119  A    between atoms: _339  and  _340
REMARK  120  A    between atoms: _348  and  _350
REMARK  121  A    between atoms: _350  and  _351
REMARK  122  A    between atoms: _350  and  _353
REMARK  123  A    between atoms: _353  and  _354
REMARK  124  A    between atoms: _356  and  _358
REMARK  125  A    between atoms: _358  and  _359
REMARK  126  A    between atoms: _358  and  _361
REMARK  127  A    between atoms: _361  and  _362
REMARK  128  A    between atoms: _366  and  ZN_723
REMARK  129  A    between atoms: _367  and  _369
REMARK  130  A    between atoms: _369  and  _370
REMARK  131  A    between atoms: _369  and  _372
REMARK  132  A    between atoms: _372  and  _373
REMARK  133  A    between atoms: _375  and  _377
REMARK  134  A    between atoms: _377  and  _378
REMARK  135  A    between atoms: _377  and  _380
REMARK  136  A    between atoms: _380  and  _381
REMARK  137  A    between atoms: _386  and  _388
REMARK  138  A    between atoms: _388  and  _389
REMARK  139  A    between atoms: _388  and  _391
REMARK  140  A    between atoms: _391  and  _392
REMARK  141  A    between atoms: _395  and  _397
REMARK  142  A    between atoms: _397  and  _398
REMARK  143  A    between atoms: _397  and  _400
REMARK  144  A    between atoms: _400  and  _401
REMARK  145  A    between atoms: _401  and  _402
REMARK  146  A    between atoms: _405  and  _407
REMARK  147  A    between atoms: _407  and  _408
REMARK  148  A    between atoms: _411  and  _413
REMARK  149  A    between atoms: _413  and  _414
REMARK  150  A    between atoms: _413  and  _416
REMARK  151  A    between atoms: _416  and  _417
REMARK  152  A    between atoms: _420  and  _422
REMARK  153  A    between atoms: _422  and  _423
REMARK  154  A    between atoms: _422  and  _425
REMARK  155  A    between atoms: _425  and  _426
REMARK  156  A    between atoms: _426  and  _427
REMARK  157  A    between atoms: _429  and  _431
REMARK  158  A    between atoms: _431  and  _432
REMARK  159  A    between atoms: _431  and  _434
REMARK  160  A    between atoms: _434  and  _435
REMARK  161  A    between atoms: _440  and  _441
REMARK  162  A    between atoms: _444  and  _445
REMARK  163  A    between atoms: _450  and  _452
REMARK  164  A    between atoms: _452  and  _453
REMARK  165  A    between atoms: _452  and  _455
REMARK  166  A    between atoms: _455  and  _456
REMARK  167  A    between atoms: _459  and  _461
REMARK  168  A    between atoms: _461  and  _462
REMARK  169  A    between atoms: _461  and  _464
REMARK  170  A    between atoms: _464  and  _465
REMARK  171  A    between atoms: _470  and  _471
REMARK  172  A    between atoms: _473  and  _475
REMARK  173  A    between atoms: _475  and  _476
REMARK  174  A    between atoms: _475  and  _478
REMARK  175  A    between atoms: _478  and  _479
REMARK  176  A    between atoms: _484  and  _486
REMARK  177  A    between atoms: _486  and  _487
REMARK  178  A    between atoms: _486  and  _489
REMARK  179  A    between atoms: _489  and  _490
REMARK  180  A    between atoms: _492  and  _494
REMARK  181  A    between atoms: _494  and  _495
REMARK  182  A    between atoms: _494  and  _497
REMARK  183  A    between atoms: _497  and  _498
REMARK  184  A    between atoms: _501  and  _503
REMARK  185  A    between atoms: _503  and  _504
REMARK  186  A    between atoms: _503  and  _506
REMARK  187  A    between atoms: _506  and  _507
REMARK  188  A    between atoms: _510  and  _512
REMARK  189  A    between atoms: _512  and  _513
REMARK  190  A    between atoms: _512  and  _515
REMARK  191  A    between atoms: _515  and  _516
REMARK  192  A    between atoms: _519  and  _521
REMARK  193  A    between atoms: _521  and  _522
REMARK  194  A    between atoms: _521  and  _524
REMARK  195  A    between atoms: _524  and  _525
REMARK  196  A    between atoms: _528  and  _530
REMARK  197  A    between atoms: _530  and  _531
REMARK  198  A    between atoms: _530  and  _533
REMARK  199  A    between atoms: _533  and  _534
REMARK  200  A    between atoms: _534  and  _535
REMARK  201  A    between atoms: _535  and  _536
REMARK  202  A    between atoms: _545  and  _547
REMARK  203  A    between atoms: _547  and  _548
REMARK  204  A    between atoms: _547  and  _550
REMARK  205  A    between atoms: _550  and  _551
REMARK  206  A    between atoms: _557  and  _559
REMARK  207  A    between atoms: _559  and  _560
REMARK  208  A    between atoms: _559  and  _562
REMARK  209  A    between atoms: _562  and  _563
REMARK  210  A    between atoms: _563  and  _564
REMARK  211  A    between atoms: _564  and  _565
REMARK  212  A    between atoms: _574  and  _576
REMARK  213  A    between atoms: _576  and  _577
REMARK  214  A    between atoms: _576  and  _579
REMARK  215  A    between atoms: _579  and  _580
REMARK  216  A    between atoms: _582  and  _584
REMARK  217  A    between atoms: _584  and  _585
REMARK  218  A    between atoms: _584  and  _587
REMARK  219  A    between atoms: _587  and  _588
REMARK  220  A    between atoms: _591  and  _593
REMARK  221  A    between atoms: _593  and  _594
REMARK  222  A    between atoms: _593  and  _596
REMARK  223  A    between atoms: _596  and  _597
REMARK  224  A    between atoms: _601  and  _602
REMARK  225  A    between atoms: _607  and  _609
REMARK  226  A    between atoms: _609  and  _610
REMARK  227  A    between atoms: _609  and  _612
REMARK  228  A    between atoms: _612  and  _613
REMARK  229  A    between atoms: _618  and  _620
REMARK  230  A    between atoms: _620  and  _621
REMARK  231  A    between atoms: _620  and  _623
REMARK  232  A    between atoms: _623  and  _624
REMARK  233  A    between atoms: _627  and  _629
REMARK  234  A    between atoms: _629  and  _630
REMARK  235  A    between atoms: _629  and  _632
REMARK  236  A    between atoms: _632  and  _633
REMARK  237  A    between atoms: _639  and  _641
REMARK  238  A    between atoms: _641  and  _642
REMARK  239  A    between atoms: _641  and  _644
REMARK  240  A    between atoms: _644  and  _645
REMARK  241  A    between atoms: _650  and  _652
REMARK  242  A    between atoms: _652  and  _653
REMARK  243  A    between atoms: _652  and  _655
REMARK  244  A    between atoms: _655  and  _656
REMARK  245  A    between atoms: _658  and  _660
REMARK  246  A    between atoms: _660  and  _661
REMARK  247  A    between atoms: _664  and  _666
REMARK  248  A    between atoms: _666  and  _667
REMARK  249  A    between atoms: _666  and  _669
REMARK  250  A    between atoms: _669  and  _670
REMARK  251  A    between atoms: _675  and  _677
REMARK  252  A    between atoms: _677  and  _678
REMARK  253  A    between atoms: _677  and  _680
REMARK  254  A    between atoms: _680  and  _681
REMARK  255  A    between atoms: _684  and  _686
REMARK  256  A    between atoms: _686  and  _687
REMARK  257  A    between atoms: _686  and  _689
REMARK  258  A    between atoms: _689  and  _690
REMARK  259  A    between atoms: _690  and  _691
REMARK  260  A    between atoms: _693  and  _695
REMARK  261  A    between atoms: _695  and  _696
REMARK  262  A    between atoms: _695  and  _698
REMARK  263  A    between atoms: _698  and  _699
REMARK  264  A    between atoms: _704  and  _705
REMARK  265  A    between atoms: _708  and  _709
REMARK  266  A    between atoms: _714  and  _716
REMARK  267  A    between atoms: _716  and  _717
REMARK  268  A    between atoms: _716  and  _719
REMARK  269  A    between atoms: _719  and  _720
REMARK                            x       y       z     vdW  Elec       q    Type
REMARK                         _______ _______ _______ _____ _____    ______ ____
ROOT
ATOM      1  O   HOH     1      29.709  44.117  25.532  0.00  0.00    +0.000 OA
ENDROOT
TORSDOF 0
REMARK  Name = ../refined-set-2016/1hfs/1hfs_pocket.pdb
REMARK  269 active torsions:
REMARK  status: ('A' for Active; 'I' for Inactive)
REMARK    1  A    between atoms: _1  and  _3
REMARK    2  A    between atoms: _3  and  _4
REMARK    3  A    between atoms: _3  and  _6
REMARK    4  A    between atoms: _6  and  _7
REMARK    5  A    between atoms: _11  and  ZN_724
REMARK    6  A    between atoms: _12  and  _14
REMARK    7  A    between atoms: _14  and  _15
REMARK    8  A    between atoms: _14  and  _17
REMARK    9  A    between atoms: _17  and  _18
REMARK   10  A    between atoms: _18  and  _20
REMARK   11  A    between atoms: _20  and  ZN_724
REMARK   12  A    between atoms: _21  and  _23
REMARK   13  A    between atoms: _23  and  _24
REMARK   14  A    between atoms: _23  and  _26
REMARK   15  A    between atoms: _26  and  _27
REMARK   16  A    between atoms: _33  and  _35
REMARK   17  A    between atoms: _35  and  _36
REMARK   18  A    between atoms: _35  and  _38
REMARK   19  A    between atoms: _38  and  _39
REMARK   20  A    between atoms: _44  and  _45
REMARK   21  A    between atoms: _48  and  _49
REMARK   22  A    between atoms: _54  and  _56
REMARK   23  A    between atoms: _56  and  _57
REMARK   24  A    between atoms: _56  and  _59
REMARK   25  A    between atoms: _59  and  _60
REMARK   26  A    between atoms: _66  and  _68
REMARK   27  A    between atoms: _68  and  _69
REMARK   28  A    between atoms: _68  and  _71
REMARK   29  A    between atoms: _71  and  _72
REMARK   30  A    between atoms: _76  and  _77
REMARK   31  A    between atoms: _82  and  _84
REMARK   32  A    between atoms: _89  and  _92
REMARK   33  A    between atoms: _92  and  _93
REMARK   34  A    between atoms: _100  and  _103
REMARK   35  A    between atoms: _101  and  _106
REMARK   36  A    between atoms: _106  and  _108
REMARK   37  A    between atoms: _108  and  _109
REMARK   38  A    between atoms: _108  and  _111
REMARK   39  A    between atoms: _111  and  _112
REMARK   40  A    between atoms: _115  and  _117
REMARK   41  A    between atoms: _117  and  _118
REMARK   42  A    between atoms: _121  and  _123
REMARK   43  A    between atoms: _123  and  _124
REMARK   44  A    between atoms: _123  and  _126
REMARK   45  A    between atoms: _126  and  _127
REMARK   46  A    between atoms: _131  and  ZN_724
REMARK   47  A    between atoms: _132  and  _134
REMARK   48  A    between atoms: _134  and  _135
REMARK   49  A    between atoms: _138  and  _140
REMARK   50  A    between atoms: _140  and  _141
REMARK   51  A    between atoms: _140  and  _143
REMARK   52  A    between atoms: _143  and  _144
REMARK   53  A    between atoms: _149  and  _150
REMARK   54  A    between atoms: _152  and  _154
REMARK   55  A    between atoms: _154  and  _155
REMARK   56  A    between atoms: _158  and  _160
REMARK   57  A    between atoms: _160  and  _161
REMARK   58  A    between atoms: _160  and  _163
REMARK   59  A    between atoms: _163  and  _164
REMARK   60  A    between atoms: _167  and  _169
REMARK   61  A    between atoms: _169  and  _170
REMARK   62  A    between atoms: _172  and  _174
REMARK   63  A    between atoms: _174  and  _175
REMARK   64  A    between atoms: _174  and  _177
REMARK   65  A    between atoms: _177  and  _178
REMARK   66  A    between atoms: _181  and  _183
REMARK   67  A    between atoms: _183  and  _184
REMARK   68  A    between atoms: _183  and  _186
REMARK   69  A    between atoms: _186  and  _187
REMARK   70  A    between atoms: _188  and  ZN_724
REMARK   71  A    between atoms: _192  and  _194
REMARK   72  A    between atoms: _194  and  _195
REMARK   73  A    between atoms: _194  and  _197
REMARK   74  A    between atoms: _197  and  _198
REMARK   75  A    between atoms: _201  and  _203
REMARK   76  A    between atoms: _203  and  _204
REMARK   77  A    between atoms: _203  and  _206
REMARK   78  A    between atoms: _206  and  _207
REMARK   79  A    between atoms: _207  and  _208
REMARK   80  A    between atoms: _211  and  _213
REMARK   81  A    between atoms: _213  and  _214
REMARK   82  A    between atoms: _213  and  _216
REMARK   83  A    between atoms: _216  and  _217
REMARK   84  A    between atoms: _227  and  _229
REMARK   85  A    between atoms: _229  and  _230
REMARK   86  A    between atoms: _232  and  _234
REMARK   87  A    between atoms: _234  and  _235
REMARK   88  A    between atoms: _234  and  _237
REMARK   89  A    between atoms: _237  and  _238
REMARK   90  A    between atoms: _241  and  _243
REMARK   91  A    between atoms: _243  and  _244
REMARK   92  A    between atoms: _243  and  _246
REMARK   93  A    between atoms: _246  and  _247
REMARK   94  A    between atoms: _252  and  _254
REMARK   95  A    between atoms: _254  and  _255
REMARK   96  A    between atoms: _254  and  _257
REMARK   97  A    between atoms: _257  and  _258
REMARK   98  A    between atoms: _261  and  _263
REMARK   99  A    between atoms: _263  and  _264
REMARK  100  A    between atoms: _263  and  _266
REMARK  101  A    between atoms: _266  and  _267
REMARK  102  A    between atoms: _273  and  _275
REMARK  103  A    between atoms: _275  and  _276
REMARK  104  A    between atoms: _275  and  _278
REMARK  105  A    between atoms: _278  and  _279
REMARK  106  A    between atoms: _282  and  _284
REMARK  107  A    between atoms: _284  and  _285
REMARK  108  A    between atoms: _284  and  _287
REMARK  109  A    between atoms: _290  and  _292
REMARK  110  A    between atoms: _292  and  _293
REMARK  111  A    between atoms: _296  and  _298
REMARK  112  A    between atoms: _298  and  _299
REMARK  113  A    between atoms: _302  and  _304
REMARK  114  A    between atoms: _315  and  _318
REMARK  115  A    between atoms: _318  and  _319
REMARK  116  A    between atoms: _319  and  _320
REMARK  117  A    between atoms: _325  and  _328
REMARK  118  A    between atoms: _328  and  _329
REMARK  119  A    between atoms: _339  and  _340
REMARK  120  A    between atoms: _348  and  _350
REMARK  121  A    between atoms: _350  and  _351
REMARK  122  A    between atoms: _350  and  _353
REMARK  123  A    between atoms: _353  and  _354
REMARK  124  A    between atoms: _356  and  _358
REMARK  125  A    between atoms: _358  and  _359
REMARK  126  A    between atoms: _358  and  _361
REMARK  127  A    between atoms: _361  and  _362
REMARK  128  A    between atoms: _366  and  ZN_723
REMARK  129  A    between atoms: _367  and  _369
REMARK  130  A    between atoms: _369  and  _370
REMARK  131  A    between atoms: _369  and  _372
REMARK  132  A    between atoms: _372  and  _373
REMARK  133  A    between atoms: _375  and  _377
REMARK  134  A    between atoms: _377  and  _378
REMARK  135  A    between atoms: _377  and  _380
REMARK  136  A    between atoms: _380  and  _381
REMARK  137  A    between atoms: _386  and  _388
REMARK  138  A    between atoms: _388  and  _389
REMARK  139  A    between atoms: _388  and  _391
REMARK  140  A    between atoms: _391  and  _392
REMARK  141  A    between atoms: _395  and  _397
REMARK  142  A    between atoms: _397  and  _398
REMARK  143  A    between atoms: _397  and  _400
REMARK  144  A    between atoms: _400  and  _401
REMARK  145  A    between atoms: _401  and  _402
REMARK  146  A    between atoms: _405  and  _407
REMARK  147  A    between atoms: _407  and  _408
REMARK  148  A    between atoms: _411  and  _413
REMARK  149  A    between atoms: _413  and  _414
REMARK  150  A    between atoms: _413  and  _416
REMARK  151  A    between atoms: _416  and  _417
REMARK  152  A    between atoms: _420  and  _422
REMARK  153  A    between atoms: _422  and  _423
REMARK  154  A    between atoms: _422  and  _425
REMARK  155  A    between atoms: _425  and  _426
REMARK  156  A    between atoms: _426  and  _427
REMARK  157  A    between atoms: _429  and  _431
REMARK  158  A    between atoms: _431  and  _432
REMARK  159  A    between atoms: _431  and  _434
REMARK  160  A    between atoms: _434  and  _435
REMARK  161  A    between atoms: _440  and  _441
REMARK  162  A    between atoms: _444  and  _445
REMARK  163  A    between atoms: _450  and  _452
REMARK  164  A    between atoms: _452  and  _453
REMARK  165  A    between atoms: _452  and  _455
REMARK  166  A    between atoms: _455  and  _456
REMARK  167  A    between atoms: _459  and  _461
REMARK  168  A    between atoms: _461  and  _462
REMARK  169  A    between atoms: _461  and  _464
REMARK  170  A    between atoms: _464  and  _465
REMARK  171  A    between atoms: _470  and  _471
REMARK  172  A    between atoms: _473  and  _475
REMARK  173  A    between atoms: _475  and  _476
REMARK  174  A    between atoms: _475  and  _478
REMARK  175  A    between atoms: _478  and  _479
REMARK  176  A    between atoms: _484  and  _486
REMARK  177  A    between atoms: _486  and  _487
REMARK  178  A    between atoms: _486  and  _489
REMARK  179  A    between atoms: _489  and  _490
REMARK  180  A    between atoms: _492  and  _494
REMARK  181  A    between atoms: _494  and  _495
REMARK  182  A    between atoms: _494  and  _497
REMARK  183  A    between atoms: _497  and  _498
REMARK  184  A    between atoms: _501  and  _503
REMARK  185  A    between atoms: _503  and  _504
REMARK  186  A    between atoms: _503  and  _506
REMARK  187  A    between atoms: _506  and  _507
REMARK  188  A    between atoms: _510  and  _512
REMARK  189  A    between atoms: _512  and  _513
REMARK  190  A    between atoms: _512  and  _515
REMARK  191  A    between atoms: _515  and  _516
REMARK  192  A    between atoms: _519  and  _521
REMARK  193  A    between atoms: _521  and  _522
REMARK  194  A    between atoms: _521  and  _524
REMARK  195  A    between atoms: _524  and  _525
REMARK  196  A    between atoms: _528  and  _530
REMARK  197  A    between atoms: _530  and  _531
REMARK  198  A    between atoms: _530  and  _533
REMARK  199  A    between atoms: _533  and  _534
REMARK  200  A    between atoms: _534  and  _535
REMARK  201  A    between atoms: _535  and  _536
REMARK  202  A    between atoms: _545  and  _547
REMARK  203  A    between atoms: _547  and  _548
REMARK  204  A    between atoms: _547  and  _550
REMARK  205  A    between atoms: _550  and  _551
REMARK  206  A    between atoms: _557  and  _559
REMARK  207  A    between atoms: _559  and  _560
REMARK  208  A    between atoms: _559  and  _562
REMARK  209  A    between atoms: _562  and  _563
REMARK  210  A    between atoms: _563  and  _564
REMARK  211  A    between atoms: _564  and  _565
REMARK  212  A    between atoms: _574  and  _576
REMARK  213  A    between atoms: _576  and  _577
REMARK  214  A    between atoms: _576  and  _579
REMARK  215  A    between atoms: _579  and  _580
REMARK  216  A    between atoms: _582  and  _584
REMARK  217  A    between atoms: _584  and  _585
REMARK  218  A    between atoms: _584  and  _587
REMARK  219  A    between atoms: _587  and  _588
REMARK  220  A    between atoms: _591  and  _593
REMARK  221  A    between atoms: _593  and  _594
REMARK  222  A    between atoms: _593  and  _596
REMARK  223  A    between atoms: _596  and  _597
REMARK  224  A    between atoms: _601  and  _602
REMARK  225  A    between atoms: _607  and  _609
REMARK  226  A    between atoms: _609  and  _610
REMARK  227  A    between atoms: _609  and  _612
REMARK  228  A    between atoms: _612  and  _613
REMARK  229  A    between atoms: _618  and  _620
REMARK  230  A    between atoms: _620  and  _621
REMARK  231  A    between atoms: _620  and  _623
REMARK  232  A    between atoms: _623  and  _624
REMARK  233  A    between atoms: _627  and  _629
REMARK  234  A    between atoms: _629  and  _630
REMARK  235  A    between atoms: _629  and  _632
REMARK  236  A    between atoms: _632  and  _633
REMARK  237  A    between atoms: _639  and  _641
REMARK  238  A    between atoms: _641  and  _642
REMARK  239  A    between atoms: _641  and  _644
REMARK  240  A    between atoms: _644  and  _645
REMARK  241  A    between atoms: _650  and  _652
REMARK  242  A    between atoms: _652  and  _653
REMARK  243  A    between atoms: _652  and  _655
REMARK  244  A    between atoms: _655  and  _656
REMARK  245  A    between atoms: _658  and  _660
REMARK  246  A    between atoms: _660  and  _661
REMARK  247  A    between atoms: _664  and  _666
REMARK  248  A    between atoms: _666  and  _667
REMARK  249  A    between atoms: _666  and  _669
REMARK  250  A    between atoms: _669  and  _670
REMARK  251  A    between atoms: _675  and  _677
REMARK  252  A    between atoms: _677  and  _678
REMARK  253  A    between atoms: _677  and  _680
REMARK  254  A    between atoms: _680  and  _681
REMARK  255  A    between atoms: _684  and  _686
REMARK  256  A    between atoms: _686  and  _687
REMARK  257  A    between atoms: _686  and  _689
REMARK  258  A    between atoms: _689  and  _690
REMARK  259  A    between atoms: _690  and  _691
REMARK  260  A    between atoms: _693  and  _695
REMARK  261  A    between atoms: _695  and  _696
REMARK  262  A    between atoms: _695  and  _698
REMARK  263  A    between atoms: _698  and  _699
REMARK  264  A    between atoms: _704  and  _705
REMARK  265  A    between atoms: _708  and  _709
REMARK  266  A    between atoms: _714  and  _716
REMARK  267  A    between atoms: _716  and  _717
REMARK  268  A    between atoms: _716  and  _719
REMARK  269  A    between atoms: _719  and  _720
REMARK                            x       y       z     vdW  Elec       q    Type
REMARK                         _______ _______ _______ _____ _____    ______ ____
ROOT
ATOM      1  O   HOH     1      29.414  41.001  17.220  0.00  0.00    +0.000 OA
ENDROOT
TORSDOF 0
REMARK  Name = ../refined-set-2016/1hfs/1hfs_pocket.pdb
REMARK  269 active torsions:
REMARK  status: ('A' for Active; 'I' for Inactive)
REMARK    1  A    between atoms: _1  and  _3
REMARK    2  A    between atoms: _3  and  _4
REMARK    3  A    between atoms: _3  and  _6
REMARK    4  A    between atoms: _6  and  _7
REMARK    5  A    between atoms: _11  and  ZN_724
REMARK    6  A    between atoms: _12  and  _14
REMARK    7  A    between atoms: _14  and  _15
REMARK    8  A    between atoms: _14  and  _17
REMARK    9  A    between atoms: _17  and  _18
REMARK   10  A    between atoms: _18  and  _20
REMARK   11  A    between atoms: _20  and  ZN_724
REMARK   12  A    between atoms: _21  and  _23
REMARK   13  A    between atoms: _23  and  _24
REMARK   14  A    between atoms: _23  and  _26
REMARK   15  A    between atoms: _26  and  _27
REMARK   16  A    between atoms: _33  and  _35
REMARK   17  A    between atoms: _35  and  _36
REMARK   18  A    between atoms: _35  and  _38
REMARK   19  A    between atoms: _38  and  _39
REMARK   20  A    between atoms: _44  and  _45
REMARK   21  A    between atoms: _48  and  _49
REMARK   22  A    between atoms: _54  and  _56
REMARK   23  A    between atoms: _56  and  _57
REMARK   24  A    between atoms: _56  and  _59
REMARK   25  A    between atoms: _59  and  _60
REMARK   26  A    between atoms: _66  and  _68
REMARK   27  A    between atoms: _68  and  _69
REMARK   28  A    between atoms: _68  and  _71
REMARK   29  A    between atoms: _71  and  _72
REMARK   30  A    between atoms: _76  and  _77
REMARK   31  A    between atoms: _82  and  _84
REMARK   32  A    between atoms: _89  and  _92
REMARK   33  A    between atoms: _92  and  _93
REMARK   34  A    between atoms: _100  and  _103
REMARK   35  A    between atoms: _101  and  _106
REMARK   36  A    between atoms: _106  and  _108
REMARK   37  A    between atoms: _108  and  _109
REMARK   38  A    between atoms: _108  and  _111
REMARK   39  A    between atoms: _111  and  _112
REMARK   40  A    between atoms: _115  and  _117
REMARK   41  A    between atoms: _117  and  _118
REMARK   42  A    between atoms: _121  and  _123
REMARK   43  A    between atoms: _123  and  _124
REMARK   44  A    between atoms: _123  and  _126
REMARK   45  A    between atoms: _126  and  _127
REMARK   46  A    between atoms: _131  and  ZN_724
REMARK   47  A    between atoms: _132  and  _134
REMARK   48  A    between atoms: _134  and  _135
REMARK   49  A    between atoms: _138  and  _140
REMARK   50  A    between atoms: _140  and  _141
REMARK   51  A    between atoms: _140  and  _143
REMARK   52  A    between atoms: _143  and  _144
REMARK   53  A    between atoms: _149  and  _150
REMARK   54  A    between atoms: _152  and  _154
REMARK   55  A    between atoms: _154  and  _155
REMARK   56  A    between atoms: _158  and  _160
REMARK   57  A    between atoms: _160  and  _161
REMARK   58  A    between atoms: _160  and  _163
REMARK   59  A    between atoms: _163  and  _164
REMARK   60  A    between atoms: _167  and  _169
REMARK   61  A    between atoms: _169  and  _170
REMARK   62  A    between atoms: _172  and  _174
REMARK   63  A    between atoms: _174  and  _175
REMARK   64  A    between atoms: _174  and  _177
REMARK   65  A    between atoms: _177  and  _178
REMARK   66  A    between atoms: _181  and  _183
REMARK   67  A    between atoms: _183  and  _184
REMARK   68  A    between atoms: _183  and  _186
REMARK   69  A    between atoms: _186  and  _187
REMARK   70  A    between atoms: _188  and  ZN_724
REMARK   71  A    between atoms: _192  and  _194
REMARK   72  A    between atoms: _194  and  _195
REMARK   73  A    between atoms: _194  and  _197
REMARK   74  A    between atoms: _197  and  _198
REMARK   75  A    between atoms: _201  and  _203
REMARK   76  A    between atoms: _203  and  _204
REMARK   77  A    between atoms: _203  and  _206
REMARK   78  A    between atoms: _206  and  _207
REMARK   79  A    between atoms: _207  and  _208
REMARK   80  A    between atoms: _211  and  _213
REMARK   81  A    between atoms: _213  and  _214
REMARK   82  A    between atoms: _213  and  _216
REMARK   83  A    between atoms: _216  and  _217
REMARK   84  A    between atoms: _227  and  _229
REMARK   85  A    between atoms: _229  and  _230
REMARK   86  A    between atoms: _232  and  _234
REMARK   87  A    between atoms: _234  and  _235
REMARK   88  A    between atoms: _234  and  _237
REMARK   89  A    between atoms: _237  and  _238
REMARK   90  A    between atoms: _241  and  _243
REMARK   91  A    between atoms: _243  and  _244
REMARK   92  A    between atoms: _243  and  _246
REMARK   93  A    between atoms: _246  and  _247
REMARK   94  A    between atoms: _252  and  _254
REMARK   95  A    between atoms: _254  and  _255
REMARK   96  A    between atoms: _254  and  _257
REMARK   97  A    between atoms: _257  and  _258
REMARK   98  A    between atoms: _261  and  _263
REMARK   99  A    between atoms: _263  and  _264
REMARK  100  A    between atoms: _263  and  _266
REMARK  101  A    between atoms: _266  and  _267
REMARK  102  A    between atoms: _273  and  _275
REMARK  103  A    between atoms: _275  and  _276
REMARK  104  A    between atoms: _275  and  _278
REMARK  105  A    between atoms: _278  and  _279
REMARK  106  A    between atoms: _282  and  _284
REMARK  107  A    between atoms: _284  and  _285
REMARK  108  A    between atoms: _284  and  _287
REMARK  109  A    between atoms: _290  and  _292
REMARK  110  A    between atoms: _292  and  _293
REMARK  111  A    between atoms: _296  and  _298
REMARK  112  A    between atoms: _298  and  _299
REMARK  113  A    between atoms: _302  and  _304
REMARK  114  A    between atoms: _315  and  _318
REMARK  115  A    between atoms: _318  and  _319
REMARK  116  A    between atoms: _319  and  _320
REMARK  117  A    between atoms: _325  and  _328
REMARK  118  A    between atoms: _328  and  _329
REMARK  119  A    between atoms: _339  and  _340
REMARK  120  A    between atoms: _348  and  _350
REMARK  121  A    between atoms: _350  and  _351
REMARK  122  A    between atoms: _350  and  _353
REMARK  123  A    between atoms: _353  and  _354
REMARK  124  A    between atoms: _356  and  _358
REMARK  125  A    between atoms: _358  and  _359
REMARK  126  A    between atoms: _358  and  _361
REMARK  127  A    between atoms: _361  and  _362
REMARK  128  A    between atoms: _366  and  ZN_723
REMARK  129  A    between atoms: _367  and  _369
REMARK  130  A    between atoms: _369  and  _370
REMARK  131  A    between atoms: _369  and  _372
REMARK  132  A    between atoms: _372  and  _373
REMARK  133  A    between atoms: _375  and  _377
REMARK  134  A    between atoms: _377  and  _378
REMARK  135  A    between atoms: _377  and  _380
REMARK  136  A    between atoms: _380  and  _381
REMARK  137  A    between atoms: _386  and  _388
REMARK  138  A    between atoms: _388  and  _389
REMARK  139  A    between atoms: _388  and  _391
REMARK  140  A    between atoms: _391  and  _392
REMARK  141  A    between atoms: _395  and  _397
REMARK  142  A    between atoms: _397  and  _398
REMARK  143  A    between atoms: _397  and  _400
REMARK  144  A    between atoms: _400  and  _401
REMARK  145  A    between atoms: _401  and  _402
REMARK  146  A    between atoms: _405  and  _407
REMARK  147  A    between atoms: _407  and  _408
REMARK  148  A    between atoms: _411  and  _413
REMARK  149  A    between atoms: _413  and  _414
REMARK  150  A    between atoms: _413  and  _416
REMARK  151  A    between atoms: _416  and  _417
REMARK  152  A    between atoms: _420  and  _422
REMARK  153  A    between atoms: _422  and  _423
REMARK  154  A    between atoms: _422  and  _425
REMARK  155  A    between atoms: _425  and  _426
REMARK  156  A    between atoms: _426  and  _427
REMARK  157  A    between atoms: _429  and  _431
REMARK  158  A    between atoms: _431  and  _432
REMARK  159  A    between atoms: _431  and  _434
REMARK  160  A    between atoms: _434  and  _435
REMARK  161  A    between atoms: _440  and  _441
REMARK  162  A    between atoms: _444  and  _445
REMARK  163  A    between atoms: _450  and  _452
REMARK  164  A    between atoms: _452  and  _453
REMARK  165  A    between atoms: _452  and  _455
REMARK  166  A    between atoms: _455  and  _456
REMARK  167  A    between atoms: _459  and  _461
REMARK  168  A    between atoms: _461  and  _462
REMARK  169  A    between atoms: _461  and  _464
REMARK  170  A    between atoms: _464  and  _465
REMARK  171  A    between atoms: _470  and  _471
REMARK  172  A    between atoms: _473  and  _475
REMARK  173  A    between atoms: _475  and  _476
REMARK  174  A    between atoms: _475  and  _478
REMARK  175  A    between atoms: _478  and  _479
REMARK  176  A    between atoms: _484  and  _486
REMARK  177  A    between atoms: _486  and  _487
REMARK  178  A    between atoms: _486  and  _489
REMARK  179  A    between atoms: _489  and  _490
REMARK  180  A    between atoms: _492  and  _494
REMARK  181  A    between atoms: _494  and  _495
REMARK  182  A    between atoms: _494  and  _497
REMARK  183  A    between atoms: _497  and  _498
REMARK  184  A    between atoms: _501  and  _503
REMARK  185  A    between atoms: _503  and  _504
REMARK  186  A    between atoms: _503  and  _506
REMARK  187  A    between atoms: _506  and  _507
REMARK  188  A    between atoms: _510  and  _512
REMARK  189  A    between atoms: _512  and  _513
REMARK  190  A    between atoms: _512  and  _515
REMARK  191  A    between atoms: _515  and  _516
REMARK  192  A    between atoms: _519  and  _521
REMARK  193  A    between atoms: _521  and  _522
REMARK  194  A    between atoms: _521  and  _524
REMARK  195  A    between atoms: _524  and  _525
REMARK  196  A    between atoms: _528  and  _530
REMARK  197  A    between atoms: _530  and  _531
REMARK  198  A    between atoms: _530  and  _533
REMARK  199  A    between atoms: _533  and  _534
REMARK  200  A    between atoms: _534  and  _535
REMARK  201  A    between atoms: _535  and  _536
REMARK  202  A    between atoms: _545  and  _547
REMARK  203  A    between atoms: _547  and  _548
REMARK  204  A    between atoms: _547  and  _550
REMARK  205  A    between atoms: _550  and  _551
REMARK  206  A    between atoms: _557  and  _559
REMARK  207  A    between atoms: _559  and  _560
REMARK  208  A    between atoms: _559  and  _562
REMARK  209  A    between atoms: _562  and  _563
REMARK  210  A    between atoms: _563  and  _564
REMARK  211  A    between atoms: _564  and  _565
REMARK  212  A    between atoms: _574  and  _576
REMARK  213  A    between atoms: _576  and  _577
REMARK  214  A    between atoms: _576  and  _579
REMARK  215  A    between atoms: _579  and  _580
REMARK  216  A    between atoms: _582  and  _584
REMARK  217  A    between atoms: _584  and  _585
REMARK  218  A    between atoms: _584  and  _587
REMARK  219  A    between atoms: _587  and  _588
REMARK  220  A    between atoms: _591  and  _593
REMARK  221  A    between atoms: _593  and  _594
REMARK  222  A    between atoms: _593  and  _596
REMARK  223  A    between atoms: _596  and  _597
REMARK  224  A    between atoms: _601  and  _602
REMARK  225  A    between atoms: _607  and  _609
REMARK  226  A    between atoms: _609  and  _610
REMARK  227  A    between atoms: _609  and  _612
REMARK  228  A    between atoms: _612  and  _613
REMARK  229  A    between atoms: _618  and  _620
REMARK  230  A    between atoms: _620  and  _621
REMARK  231  A    between atoms: _620  and  _623
REMARK  232  A    between atoms: _623  and  _624
REMARK  233  A    between atoms: _627  and  _629
REMARK  234  A    between atoms: _629  and  _630
REMARK  235  A    between atoms: _629  and  _632
REMARK  236  A    between atoms: _632  and  _633
REMARK  237  A    between atoms: _639  and  _641
REMARK  238  A    between atoms: _641  and  _642
REMARK  239  A    between atoms: _641  and  _644
REMARK  240  A    between atoms: _644  and  _645
REMARK  241  A    between atoms: _650  and  _652
REMARK  242  A    between atoms: _652  and  _653
REMARK  243  A    between atoms: _652  and  _655
REMARK  244  A    between atoms: _655  and  _656
REMARK  245  A    between atoms: _658  and  _660
REMARK  246  A    between atoms: _660  and  _661
REMARK  247  A    between atoms: _664  and  _666
REMARK  248  A    between atoms: _666  and  _667
REMARK  249  A    between atoms: _666  and  _669
REMARK  250  A    between atoms: _669  and  _670
REMARK  251  A    between atoms: _675  and  _677
REMARK  252  A    between atoms: _677  and  _678
REMARK  253  A    between atoms: _677  and  _680
REMARK  254  A    between atoms: _680  and  _681
REMARK  255  A    between atoms: _684  and  _686
REMARK  256  A    between atoms: _686  and  _687
REMARK  257  A    between atoms: _686  and  _689
REMARK  258  A    between atoms: _689  and  _690
REMARK  259  A    between atoms: _690  and  _691
REMARK  260  A    between atoms: _693  and  _695
REMARK  261  A    between atoms: _695  and  _696
REMARK  262  A    between atoms: _695  and  _698
REMARK  263  A    between atoms: _698  and  _699
REMARK  264  A    between atoms: _704  and  _705
REMARK  265  A    between atoms: _708  and  _709
REMARK  266  A    between atoms: _714  and  _716
REMARK  267  A    between atoms: _716  and  _717
REMARK  268  A    between atoms: _716  and  _719
REMARK  269  A    between atoms: _719  and  _720
REMARK                            x       y       z     vdW  Elec       q    Type
REMARK                         _______ _______ _______ _____ _____    ______ ____
ROOT
ATOM      1  O   HOH     1      44.250  44.215  25.222  0.00  0.00    +0.000 OA
ENDROOT
TORSDOF 0
REMARK  Name = ../refined-set-2016/1hfs/1hfs_pocket.pdb
REMARK  269 active torsions:
REMARK  status: ('A' for Active; 'I' for Inactive)
REMARK    1  A    between atoms: _1  and  _3
REMARK    2  A    between atoms: _3  and  _4
REMARK    3  A    between atoms: _3  and  _6
REMARK    4  A    between atoms: _6  and  _7
REMARK    5  A    between atoms: _11  and  ZN_724
REMARK    6  A    between atoms: _12  and  _14
REMARK    7  A    between atoms: _14  and  _15
REMARK    8  A    between atoms: _14  and  _17
REMARK    9  A    between atoms: _17  and  _18
REMARK   10  A    between atoms: _18  and  _20
REMARK   11  A    between atoms: _20  and  ZN_724
REMARK   12  A    between atoms: _21  and  _23
REMARK   13  A    between atoms: _23  and  _24
REMARK   14  A    between atoms: _23  and  _26
REMARK   15  A    between atoms: _26  and  _27
REMARK   16  A    between atoms: _33  and  _35
REMARK   17  A    between atoms: _35  and  _36
REMARK   18  A    between atoms: _35  and  _38
REMARK   19  A    between atoms: _38  and  _39
REMARK   20  A    between atoms: _44  and  _45
REMARK   21  A    between atoms: _48  and  _49
REMARK   22  A    between atoms: _54  and  _56
REMARK   23  A    between atoms: _56  and  _57
REMARK   24  A    between atoms: _56  and  _59
REMARK   25  A    between atoms: _59  and  _60
REMARK   26  A    between atoms: _66  and  _68
REMARK   27  A    between atoms: _68  and  _69
REMARK   28  A    between atoms: _68  and  _71
REMARK   29  A    between atoms: _71  and  _72
REMARK   30  A    between atoms: _76  and  _77
REMARK   31  A    between atoms: _82  and  _84
REMARK   32  A    between atoms: _89  and  _92
REMARK   33  A    between atoms: _92  and  _93
REMARK   34  A    between atoms: _100  and  _103
REMARK   35  A    between atoms: _101  and  _106
REMARK   36  A    between atoms: _106  and  _108
REMARK   37  A    between atoms: _108  and  _109
REMARK   38  A    between atoms: _108  and  _111
REMARK   39  A    between atoms: _111  and  _112
REMARK   40  A    between atoms: _115  and  _117
REMARK   41  A    between atoms: _117  and  _118
REMARK   42  A    between atoms: _121  and  _123
REMARK   43  A    between atoms: _123  and  _124
REMARK   44  A    between atoms: _123  and  _126
REMARK   45  A    between atoms: _126  and  _127
REMARK   46  A    between atoms: _131  and  ZN_724
REMARK   47  A    between atoms: _132  and  _134
REMARK   48  A    between atoms: _134  and  _135
REMARK   49  A    between atoms: _138  and  _140
REMARK   50  A    between atoms: _140  and  _141
REMARK   51  A    between atoms: _140  and  _143
REMARK   52  A    between atoms: _143  and  _144
REMARK   53  A    between atoms: _149  and  _150
REMARK   54  A    between atoms: _152  and  _154
REMARK   55  A    between atoms: _154  and  _155
REMARK   56  A    between atoms: _158  and  _160
REMARK   57  A    between atoms: _160  and  _161
REMARK   58  A    between atoms: _160  and  _163
REMARK   59  A    between atoms: _163  and  _164
REMARK   60  A    between atoms: _167  and  _169
REMARK   61  A    between atoms: _169  and  _170
REMARK   62  A    between atoms: _172  and  _174
REMARK   63  A    between atoms: _174  and  _175
REMARK   64  A    between atoms: _174  and  _177
REMARK   65  A    between atoms: _177  and  _178
REMARK   66  A    between atoms: _181  and  _183
REMARK   67  A    between atoms: _183  and  _184
REMARK   68  A    between atoms: _183  and  _186
REMARK   69  A    between atoms: _186  and  _187
REMARK   70  A    between atoms: _188  and  ZN_724
REMARK   71  A    between atoms: _192  and  _194
REMARK   72  A    between atoms: _194  and  _195
REMARK   73  A    between atoms: _194  and  _197
REMARK   74  A    between atoms: _197  and  _198
REMARK   75  A    between atoms: _201  and  _203
REMARK   76  A    between atoms: _203  and  _204
REMARK   77  A    between atoms: _203  and  _206
REMARK   78  A    between atoms: _206  and  _207
REMARK   79  A    between atoms: _207  and  _208
REMARK   80  A    between atoms: _211  and  _213
REMARK   81  A    between atoms: _213  and  _214
REMARK   82  A    between atoms: _213  and  _216
REMARK   83  A    between atoms: _216  and  _217
REMARK   84  A    between atoms: _227  and  _229
REMARK   85  A    between atoms: _229  and  _230
REMARK   86  A    between atoms: _232  and  _234
REMARK   87  A    between atoms: _234  and  _235
REMARK   88  A    between atoms: _234  and  _237
REMARK   89  A    between atoms: _237  and  _238
REMARK   90  A    between atoms: _241  and  _243
REMARK   91  A    between atoms: _243  and  _244
REMARK   92  A    between atoms: _243  and  _246
REMARK   93  A    between atoms: _246  and  _247
REMARK   94  A    between atoms: _252  and  _254
REMARK   95  A    between atoms: _254  and  _255
REMARK   96  A    between atoms: _254  and  _257
REMARK   97  A    between atoms: _257  and  _258
REMARK   98  A    between atoms: _261  and  _263
REMARK   99  A    between atoms: _263  and  _264
REMARK  100  A    between atoms: _263  and  _266
REMARK  101  A    between atoms: _266  and  _267
REMARK  102  A    between atoms: _273  and  _275
REMARK  103  A    between atoms: _275  and  _276
REMARK  104  A    between atoms: _275  and  _278
REMARK  105  A    between atoms: _278  and  _279
REMARK  106  A    between atoms: _282  and  _284
REMARK  107  A    between atoms: _284  and  _285
REMARK  108  A    between atoms: _284  and  _287
REMARK  109  A    between atoms: _290  and  _292
REMARK  110  A    between atoms: _292  and  _293
REMARK  111  A    between atoms: _296  and  _298
REMARK  112  A    between atoms: _298  and  _299
REMARK  113  A    between atoms: _302  and  _304
REMARK  114  A    between atoms: _315  and  _318
REMARK  115  A    between atoms: _318  and  _319
REMARK  116  A    between atoms: _319  and  _320
REMARK  117  A    between atoms: _325  and  _328
REMARK  118  A    between atoms: _328  and  _329
REMARK  119  A    between atoms: _339  and  _340
REMARK  120  A    between atoms: _348  and  _350
REMARK  121  A    between atoms: _350  and  _351
REMARK  122  A    between atoms: _350  and  _353
REMARK  123  A    between atoms: _353  and  _354
REMARK  124  A    between atoms: _356  and  _358
REMARK  125  A    between atoms: _358  and  _359
REMARK  126  A    between atoms: _358  and  _361
REMARK  127  A    between atoms: _361  and  _362
REMARK  128  A    between atoms: _366  and  ZN_723
REMARK  129  A    between atoms: _367  and  _369
REMARK  130  A    between atoms: _369  and  _370
REMARK  131  A    between atoms: _369  and  _372
REMARK  132  A    between atoms: _372  and  _373
REMARK  133  A    between atoms: _375  and  _377
REMARK  134  A    between atoms: _377  and  _378
REMARK  135  A    between atoms: _377  and  _380
REMARK  136  A    between atoms: _380  and  _381
REMARK  137  A    between atoms: _386  and  _388
REMARK  138  A    between atoms: _388  and  _389
REMARK  139  A    between atoms: _388  and  _391
REMARK  140  A    between atoms: _391  and  _392
REMARK  141  A    between atoms: _395  and  _397
REMARK  142  A    between atoms: _397  and  _398
REMARK  143  A    between atoms: _397  and  _400
REMARK  144  A    between atoms: _400  and  _401
REMARK  145  A    between atoms: _401  and  _402
REMARK  146  A    between atoms: _405  and  _407
REMARK  147  A    between atoms: _407  and  _408
REMARK  148  A    between atoms: _411  and  _413
REMARK  149  A    between atoms: _413  and  _414
REMARK  150  A    between atoms: _413  and  _416
REMARK  151  A    between atoms: _416  and  _417
REMARK  152  A    between atoms: _420  and  _422
REMARK  153  A    between atoms: _422  and  _423
REMARK  154  A    between atoms: _422  and  _425
REMARK  155  A    between atoms: _425  and  _426
REMARK  156  A    between atoms: _426  and  _427
REMARK  157  A    between atoms: _429  and  _431
REMARK  158  A    between atoms: _431  and  _432
REMARK  159  A    between atoms: _431  and  _434
REMARK  160  A    between atoms: _434  and  _435
REMARK  161  A    between atoms: _440  and  _441
REMARK  162  A    between atoms: _444  and  _445
REMARK  163  A    between atoms: _450  and  _452
REMARK  164  A    between atoms: _452  and  _453
REMARK  165  A    between atoms: _452  and  _455
REMARK  166  A    between atoms: _455  and  _456
REMARK  167  A    between atoms: _459  and  _461
REMARK  168  A    between atoms: _461  and  _462
REMARK  169  A    between atoms: _461  and  _464
REMARK  170  A    between atoms: _464  and  _465
REMARK  171  A    between atoms: _470  and  _471
REMARK  172  A    between atoms: _473  and  _475
REMARK  173  A    between atoms: _475  and  _476
REMARK  174  A    between atoms: _475  and  _478
REMARK  175  A    between atoms: _478  and  _479
REMARK  176  A    between atoms: _484  and  _486
REMARK  177  A    between atoms: _486  and  _487
REMARK  178  A    between atoms: _486  and  _489
REMARK  179  A    between atoms: _489  and  _490
REMARK  180  A    between atoms: _492  and  _494
REMARK  181  A    between atoms: _494  and  _495
REMARK  182  A    between atoms: _494  and  _497
REMARK  183  A    between atoms: _497  and  _498
REMARK  184  A    between atoms: _501  and  _503
REMARK  185  A    between atoms: _503  and  _504
REMARK  186  A    between atoms: _503  and  _506
REMARK  187  A    between atoms: _506  and  _507
REMARK  188  A    between atoms: _510  and  _512
REMARK  189  A    between atoms: _512  and  _513
REMARK  190  A    between atoms: _512  and  _515
REMARK  191  A    between atoms: _515  and  _516
REMARK  192  A    between atoms: _519  and  _521
REMARK  193  A    between atoms: _521  and  _522
REMARK  194  A    between atoms: _521  and  _524
REMARK  195  A    between atoms: _524  and  _525
REMARK  196  A    between atoms: _528  and  _530
REMARK  197  A    between atoms: _530  and  _531
REMARK  198  A    between atoms: _530  and  _533
REMARK  199  A    between atoms: _533  and  _534
REMARK  200  A    between atoms: _534  and  _535
REMARK  201  A    between atoms: _535  and  _536
REMARK  202  A    between atoms: _545  and  _547
REMARK  203  A    between atoms: _547  and  _548
REMARK  204  A    between atoms: _547  and  _550
REMARK  205  A    between atoms: _550  and  _551
REMARK  206  A    between atoms: _557  and  _559
REMARK  207  A    between atoms: _559  and  _560
REMARK  208  A    between atoms: _559  and  _562
REMARK  209  A    between atoms: _562  and  _563
REMARK  210  A    between atoms: _563  and  _564
REMARK  211  A    between atoms: _564  and  _565
REMARK  212  A    between atoms: _574  and  _576
REMARK  213  A    between atoms: _576  and  _577
REMARK  214  A    between atoms: _576  and  _579
REMARK  215  A    between atoms: _579  and  _580
REMARK  216  A    between atoms: _582  and  _584
REMARK  217  A    between atoms: _584  and  _585
REMARK  218  A    between atoms: _584  and  _587
REMARK  219  A    between atoms: _587  and  _588
REMARK  220  A    between atoms: _591  and  _593
REMARK  221  A    between atoms: _593  and  _594
REMARK  222  A    between atoms: _593  and  _596
REMARK  223  A    between atoms: _596  and  _597
REMARK  224  A    between atoms: _601  and  _602
REMARK  225  A    between atoms: _607  and  _609
REMARK  226  A    between atoms: _609  and  _610
REMARK  227  A    between atoms: _609  and  _612
REMARK  228  A    between atoms: _612  and  _613
REMARK  229  A    between atoms: _618  and  _620
REMARK  230  A    between atoms: _620  and  _621
REMARK  231  A    between atoms: _620  and  _623
REMARK  232  A    between atoms: _623  and  _624
REMARK  233  A    between atoms: _627  and  _629
REMARK  234  A    between atoms: _629  and  _630
REMARK  235  A    between atoms: _629  and  _632
REMARK  236  A    between atoms: _632  and  _633
REMARK  237  A    between atoms: _639  and  _641
REMARK  238  A    between atoms: _641  and  _642
REMARK  239  A    between atoms: _641  and  _644
REMARK  240  A    between atoms: _644  and  _645
REMARK  241  A    between atoms: _650  and  _652
REMARK  242  A    between atoms: _652  and  _653
REMARK  243  A    between atoms: _652  and  _655
REMARK  244  A    between atoms: _655  and  _656
REMARK  245  A    between atoms: _658  and  _660
REMARK  246  A    between atoms: _660  and  _661
REMARK  247  A    between atoms: _664  and  _666
REMARK  248  A    between atoms: _666  and  _667
REMARK  249  A    between atoms: _666  and  _669
REMARK  250  A    between atoms: _669  and  _670
REMARK  251  A    between atoms: _675  and  _677
REMARK  252  A    between atoms: _677  and  _678
REMARK  253  A    between atoms: _677  and  _680
REMARK  254  A    between atoms: _680  and  _681
REMARK  255  A    between atoms: _684  and  _686
REMARK  256  A    between atoms: _686  and  _687
REMARK  257  A    between atoms: _686  and  _689
REMARK  258  A    between atoms: _689  and  _690
REMARK  259  A    between atoms: _690  and  _691
REMARK  260  A    between atoms: _693  and  _695
REMARK  261  A    between atoms: _695  and  _696
REMARK  262  A    between atoms: _695  and  _698
REMARK  263  A    between atoms: _698  and  _699
REMARK  264  A    between atoms: _704  and  _705
REMARK  265  A    between atoms: _708  and  _709
REMARK  266  A    between atoms: _714  and  _716
REMARK  267  A    between atoms: _716  and  _717
REMARK  268  A    between atoms: _716  and  _719
REMARK  269  A    between atoms: _719  and  _720
REMARK                            x       y       z     vdW  Elec       q    Type
REMARK                         _______ _______ _______ _____ _____    ______ ____
ROOT
ATOM      1  O   HOH     1      24.053  45.461  23.954  0.00  0.00    +0.000 OA
ENDROOT
TORSDOF 0
REMARK  Name = ../refined-set-2016/1hfs/1hfs_pocket.pdb
REMARK  269 active torsions:
REMARK  status: ('A' for Active; 'I' for Inactive)
REMARK    1  A    between atoms: _1  and  _3
REMARK    2  A    between atoms: _3  and  _4
REMARK    3  A    between atoms: _3  and  _6
REMARK    4  A    between atoms: _6  and  _7
REMARK    5  A    between atoms: _11  and  ZN_724
REMARK    6  A    between atoms: _12  and  _14
REMARK    7  A    between atoms: _14  and  _15
REMARK    8  A    between atoms: _14  and  _17
REMARK    9  A    between atoms: _17  and  _18
REMARK   10  A    between atoms: _18  and  _20
REMARK   11  A    between atoms: _20  and  ZN_724
REMARK   12  A    between atoms: _21  and  _23
REMARK   13  A    between atoms: _23  and  _24
REMARK   14  A    between atoms: _23  and  _26
REMARK   15  A    between atoms: _26  and  _27
REMARK   16  A    between atoms: _33  and  _35
REMARK   17  A    between atoms: _35  and  _36
REMARK   18  A    between atoms: _35  and  _38
REMARK   19  A    between atoms: _38  and  _39
REMARK   20  A    between atoms: _44  and  _45
REMARK   21  A    between atoms: _48  and  _49
REMARK   22  A    between atoms: _54  and  _56
REMARK   23  A    between atoms: _56  and  _57
REMARK   24  A    between atoms: _56  and  _59
REMARK   25  A    between atoms: _59  and  _60
REMARK   26  A    between atoms: _66  and  _68
REMARK   27  A    between atoms: _68  and  _69
REMARK   28  A    between atoms: _68  and  _71
REMARK   29  A    between atoms: _71  and  _72
REMARK   30  A    between atoms: _76  and  _77
REMARK   31  A    between atoms: _82  and  _84
REMARK   32  A    between atoms: _89  and  _92
REMARK   33  A    between atoms: _92  and  _93
REMARK   34  A    between atoms: _100  and  _103
REMARK   35  A    between atoms: _101  and  _106
REMARK   36  A    between atoms: _106  and  _108
REMARK   37  A    between atoms: _108  and  _109
REMARK   38  A    between atoms: _108  and  _111
REMARK   39  A    between atoms: _111  and  _112
REMARK   40  A    between atoms: _115  and  _117
REMARK   41  A    between atoms: _117  and  _118
REMARK   42  A    between atoms: _121  and  _123
REMARK   43  A    between atoms: _123  and  _124
REMARK   44  A    between atoms: _123  and  _126
REMARK   45  A    between atoms: _126  and  _127
REMARK   46  A    between atoms: _131  and  ZN_724
REMARK   47  A    between atoms: _132  and  _134
REMARK   48  A    between atoms: _134  and  _135
REMARK   49  A    between atoms: _138  and  _140
REMARK   50  A    between atoms: _140  and  _141
REMARK   51  A    between atoms: _140  and  _143
REMARK   52  A    between atoms: _143  and  _144
REMARK   53  A    between atoms: _149  and  _150
REMARK   54  A    between atoms: _152  and  _154
REMARK   55  A    between atoms: _154  and  _155
REMARK   56  A    between atoms: _158  and  _160
REMARK   57  A    between atoms: _160  and  _161
REMARK   58  A    between atoms: _160  and  _163
REMARK   59  A    between atoms: _163  and  _164
REMARK   60  A    between atoms: _167  and  _169
REMARK   61  A    between atoms: _169  and  _170
REMARK   62  A    between atoms: _172  and  _174
REMARK   63  A    between atoms: _174  and  _175
REMARK   64  A    between atoms: _174  and  _177
REMARK   65  A    between atoms: _177  and  _178
REMARK   66  A    between atoms: _181  and  _183
REMARK   67  A    between atoms: _183  and  _184
REMARK   68  A    between atoms: _183  and  _186
REMARK   69  A    between atoms: _186  and  _187
REMARK   70  A    between atoms: _188  and  ZN_724
REMARK   71  A    between atoms: _192  and  _194
REMARK   72  A    between atoms: _194  and  _195
REMARK   73  A    between atoms: _194  and  _197
REMARK   74  A    between atoms: _197  and  _198
REMARK   75  A    between atoms: _201  and  _203
REMARK   76  A    between atoms: _203  and  _204
REMARK   77  A    between atoms: _203  and  _206
REMARK   78  A    between atoms: _206  and  _207
REMARK   79  A    between atoms: _207  and  _208
REMARK   80  A    between atoms: _211  and  _213
REMARK   81  A    between atoms: _213  and  _214
REMARK   82  A    between atoms: _213  and  _216
REMARK   83  A    between atoms: _216  and  _217
REMARK   84  A    between atoms: _227  and  _229
REMARK   85  A    between atoms: _229  and  _230
REMARK   86  A    between atoms: _232  and  _234
REMARK   87  A    between atoms: _234  and  _235
REMARK   88  A    between atoms: _234  and  _237
REMARK   89  A    between atoms: _237  and  _238
REMARK   90  A    between atoms: _241  and  _243
REMARK   91  A    between atoms: _243  and  _244
REMARK   92  A    between atoms: _243  and  _246
REMARK   93  A    between atoms: _246  and  _247
REMARK   94  A    between atoms: _252  and  _254
REMARK   95  A    between atoms: _254  and  _255
REMARK   96  A    between atoms: _254  and  _257
REMARK   97  A    between atoms: _257  and  _258
REMARK   98  A    between atoms: _261  and  _263
REMARK   99  A    between atoms: _263  and  _264
REMARK  100  A    between atoms: _263  and  _266
REMARK  101  A    between atoms: _266  and  _267
REMARK  102  A    between atoms: _273  and  _275
REMARK  103  A    between atoms: _275  and  _276
REMARK  104  A    between atoms: _275  and  _278
REMARK  105  A    between atoms: _278  and  _279
REMARK  106  A    between atoms: _282  and  _284
REMARK  107  A    between atoms: _284  and  _285
REMARK  108  A    between atoms: _284  and  _287
REMARK  109  A    between atoms: _290  and  _292
REMARK  110  A    between atoms: _292  and  _293
REMARK  111  A    between atoms: _296  and  _298
REMARK  112  A    between atoms: _298  and  _299
REMARK  113  A    between atoms: _302  and  _304
REMARK  114  A    between atoms: _315  and  _318
REMARK  115  A    between atoms: _318  and  _319
REMARK  116  A    between atoms: _319  and  _320
REMARK  117  A    between atoms: _325  and  _328
REMARK  118  A    between atoms: _328  and  _329
REMARK  119  A    between atoms: _339  and  _340
REMARK  120  A    between atoms: _348  and  _350
REMARK  121  A    between atoms: _350  and  _351
REMARK  122  A    between atoms: _350  and  _353
REMARK  123  A    between atoms: _353  and  _354
REMARK  124  A    between atoms: _356  and  _358
REMARK  125  A    between atoms: _358  and  _359
REMARK  126  A    between atoms: _358  and  _361
REMARK  127  A    between atoms: _361  and  _362
REMARK  128  A    between atoms: _366  and  ZN_723
REMARK  129  A    between atoms: _367  and  _369
REMARK  130  A    between atoms: _369  and  _370
REMARK  131  A    between atoms: _369  and  _372
REMARK  132  A    between atoms: _372  and  _373
REMARK  133  A    between atoms: _375  and  _377
REMARK  134  A    between atoms: _377  and  _378
REMARK  135  A    between atoms: _377  and  _380
REMARK  136  A    between atoms: _380  and  _381
REMARK  137  A    between atoms: _386  and  _388
REMARK  138  A    between atoms: _388  and  _389
REMARK  139  A    between atoms: _388  and  _391
REMARK  140  A    between atoms: _391  and  _392
REMARK  141  A    between atoms: _395  and  _397
REMARK  142  A    between atoms: _397  and  _398
REMARK  143  A    between atoms: _397  and  _400
REMARK  144  A    between atoms: _400  and  _401
REMARK  145  A    between atoms: _401  and  _402
REMARK  146  A    between atoms: _405  and  _407
REMARK  147  A    between atoms: _407  and  _408
REMARK  148  A    between atoms: _411  and  _413
REMARK  149  A    between atoms: _413  and  _414
REMARK  150  A    between atoms: _413  and  _416
REMARK  151  A    between atoms: _416  and  _417
REMARK  152  A    between atoms: _420  and  _422
REMARK  153  A    between atoms: _422  and  _423
REMARK  154  A    between atoms: _422  and  _425
REMARK  155  A    between atoms: _425  and  _426
REMARK  156  A    between atoms: _426  and  _427
REMARK  157  A    between atoms: _429  and  _431
REMARK  158  A    between atoms: _431  and  _432
REMARK  159  A    between atoms: _431  and  _434
REMARK  160  A    between atoms: _434  and  _435
REMARK  161  A    between atoms: _440  and  _441
REMARK  162  A    between atoms: _444  and  _445
REMARK  163  A    between atoms: _450  and  _452
REMARK  164  A    between atoms: _452  and  _453
REMARK  165  A    between atoms: _452  and  _455
REMARK  166  A    between atoms: _455  and  _456
REMARK  167  A    between atoms: _459  and  _461
REMARK  168  A    between atoms: _461  and  _462
REMARK  169  A    between atoms: _461  and  _464
REMARK  170  A    between atoms: _464  and  _465
REMARK  171  A    between atoms: _470  and  _471
REMARK  172  A    between atoms: _473  and  _475
REMARK  173  A    between atoms: _475  and  _476
REMARK  174  A    between atoms: _475  and  _478
REMARK  175  A    between atoms: _478  and  _479
REMARK  176  A    between atoms: _484  and  _486
REMARK  177  A    between atoms: _486  and  _487
REMARK  178  A    between atoms: _486  and  _489
REMARK  179  A    between atoms: _489  and  _490
REMARK  180  A    between atoms: _492  and  _494
REMARK  181  A    between atoms: _494  and  _495
REMARK  182  A    between atoms: _494  and  _497
REMARK  183  A    between atoms: _497  and  _498
REMARK  184  A    between atoms: _501  and  _503
REMARK  185  A    between atoms: _503  and  _504
REMARK  186  A    between atoms: _503  and  _506
REMARK  187  A    between atoms: _506  and  _507
REMARK  188  A    between atoms: _510  and  _512
REMARK  189  A    between atoms: _512  and  _513
REMARK  190  A    between atoms: _512  and  _515
REMARK  191  A    between atoms: _515  and  _516
REMARK  192  A    between atoms: _519  and  _521
REMARK  193  A    between atoms: _521  and  _522
REMARK  194  A    between atoms: _521  and  _524
REMARK  195  A    between atoms: _524  and  _525
REMARK  196  A    between atoms: _528  and  _530
REMARK  197  A    between atoms: _530  and  _531
REMARK  198  A    between atoms: _530  and  _533
REMARK  199  A    between atoms: _533  and  _534
REMARK  200  A    between atoms: _534  and  _535
REMARK  201  A    between atoms: _535  and  _536
REMARK  202  A    between atoms: _545  and  _547
REMARK  203  A    between atoms: _547  and  _548
REMARK  204  A    between atoms: _547  and  _550
REMARK  205  A    between atoms: _550  and  _551
REMARK  206  A    between atoms: _557  and  _559
REMARK  207  A    between atoms: _559  and  _560
REMARK  208  A    between atoms: _559  and  _562
REMARK  209  A    between atoms: _562  and  _563
REMARK  210  A    between atoms: _563  and  _564
REMARK  211  A    between atoms: _564  and  _565
REMARK  212  A    between atoms: _574  and  _576
REMARK  213  A    between atoms: _576  and  _577
REMARK  214  A    between atoms: _576  and  _579
REMARK  215  A    between atoms: _579  and  _580
REMARK  216  A    between atoms: _582  and  _584
REMARK  217  A    between atoms: _584  and  _585
REMARK  218  A    between atoms: _584  and  _587
REMARK  219  A    between atoms: _587  and  _588
REMARK  220  A    between atoms: _591  and  _593
REMARK  221  A    between atoms: _593  and  _594
REMARK  222  A    between atoms: _593  and  _596
REMARK  223  A    between atoms: _596  and  _597
REMARK  224  A    between atoms: _601  and  _602
REMARK  225  A    between atoms: _607  and  _609
REMARK  226  A    between atoms: _609  and  _610
REMARK  227  A    between atoms: _609  and  _612
REMARK  228  A    between atoms: _612  and  _613
REMARK  229  A    between atoms: _618  and  _620
REMARK  230  A    between atoms: _620  and  _621
REMARK  231  A    between atoms: _620  and  _623
REMARK  232  A    between atoms: _623  and  _624
REMARK  233  A    between atoms: _627  and  _629
REMARK  234  A    between atoms: _629  and  _630
REMARK  235  A    between atoms: _629  and  _632
REMARK  236  A    between atoms: _632  and  _633
REMARK  237  A    between atoms: _639  and  _641
REMARK  238  A    between atoms: _641  and  _642
REMARK  239  A    between atoms: _641  and  _644
REMARK  240  A    between atoms: _644  and  _645
REMARK  241  A    between atoms: _650  and  _652
REMARK  242  A    between atoms: _652  and  _653
REMARK  243  A    between atoms: _652  and  _655
REMARK  244  A    between atoms: _655  and  _656
REMARK  245  A    between atoms: _658  and  _660
REMARK  246  A    between atoms: _660  and  _661
REMARK  247  A    between atoms: _664  and  _666
REMARK  248  A    between atoms: _666  and  _667
REMARK  249  A    between atoms: _666  and  _669
REMARK  250  A    between atoms: _669  and  _670
REMARK  251  A    between atoms: _675  and  _677
REMARK  252  A    between atoms: _677  and  _678
REMARK  253  A    between atoms: _677  and  _680
REMARK  254  A    between atoms: _680  and  _681
REMARK  255  A    between atoms: _684  and  _686
REMARK  256  A    between atoms: _686  and  _687
REMARK  257  A    between atoms: _686  and  _689
REMARK  258  A    between atoms: _689  and  _690
REMARK  259  A    between atoms: _690  and  _691
REMARK  260  A    between atoms: _693  and  _695
REMARK  261  A    between atoms: _695  and  _696
REMARK  262  A    between atoms: _695  and  _698
REMARK  263  A    between atoms: _698  and  _699
REMARK  264  A    between atoms: _704  and  _705
REMARK  265  A    between atoms: _708  and  _709
REMARK  266  A    between atoms: _714  and  _716
REMARK  267  A    between atoms: _716  and  _717
REMARK  268  A    between atoms: _716  and  _719
REMARK  269  A    between atoms: _719  and  _720
REMARK                            x       y       z     vdW  Elec       q    Type
REMARK                         _______ _______ _______ _____ _____    ______ ____
ROOT
ATOM      1  O   HOH     1      31.895  41.825  18.065  0.00  0.00    +0.000 OA
ENDROOT
TORSDOF 0
REMARK  Name = ../refined-set-2016/1hfs/1hfs_pocket.pdb
REMARK  269 active torsions:
REMARK  status: ('A' for Active; 'I' for Inactive)
REMARK    1  A    between atoms: _1  and  _3
REMARK    2  A    between atoms: _3  and  _4
REMARK    3  A    between atoms: _3  and  _6
REMARK    4  A    between atoms: _6  and  _7
REMARK    5  A    between atoms: _11  and  ZN_724
REMARK    6  A    between atoms: _12  and  _14
REMARK    7  A    between atoms: _14  and  _15
REMARK    8  A    between atoms: _14  and  _17
REMARK    9  A    between atoms: _17  and  _18
REMARK   10  A    between atoms: _18  and  _20
REMARK   11  A    between atoms: _20  and  ZN_724
REMARK   12  A    between atoms: _21  and  _23
REMARK   13  A    between atoms: _23  and  _24
REMARK   14  A    between atoms: _23  and  _26
REMARK   15  A    between atoms: _26  and  _27
REMARK   16  A    between atoms: _33  and  _35
REMARK   17  A    between atoms: _35  and  _36
REMARK   18  A    between atoms: _35  and  _38
REMARK   19  A    between atoms: _38  and  _39
REMARK   20  A    between atoms: _44  and  _45
REMARK   21  A    between atoms: _48  and  _49
REMARK   22  A    between atoms: _54  and  _56
REMARK   23  A    between atoms: _56  and  _57
REMARK   24  A    between atoms: _56  and  _59
REMARK   25  A    between atoms: _59  and  _60
REMARK   26  A    between atoms: _66  and  _68
REMARK   27  A    between atoms: _68  and  _69
REMARK   28  A    between atoms: _68  and  _71
REMARK   29  A    between atoms: _71  and  _72
REMARK   30  A    between atoms: _76  and  _77
REMARK   31  A    between atoms: _82  and  _84
REMARK   32  A    between atoms: _89  and  _92
REMARK   33  A    between atoms: _92  and  _93
REMARK   34  A    between atoms: _100  and  _103
REMARK   35  A    between atoms: _101  and  _106
REMARK   36  A    between atoms: _106  and  _108
REMARK   37  A    between atoms: _108  and  _109
REMARK   38  A    between atoms: _108  and  _111
REMARK   39  A    between atoms: _111  and  _112
REMARK   40  A    between atoms: _115  and  _117
REMARK   41  A    between atoms: _117  and  _118
REMARK   42  A    between atoms: _121  and  _123
REMARK   43  A    between atoms: _123  and  _124
REMARK   44  A    between atoms: _123  and  _126
REMARK   45  A    between atoms: _126  and  _127
REMARK   46  A    between atoms: _131  and  ZN_724
REMARK   47  A    between atoms: _132  and  _134
REMARK   48  A    between atoms: _134  and  _135
REMARK   49  A    between atoms: _138  and  _140
REMARK   50  A    between atoms: _140  and  _141
REMARK   51  A    between atoms: _140  and  _143
REMARK   52  A    between atoms: _143  and  _144
REMARK   53  A    between atoms: _149  and  _150
REMARK   54  A    between atoms: _152  and  _154
REMARK   55  A    between atoms: _154  and  _155
REMARK   56  A    between atoms: _158  and  _160
REMARK   57  A    between atoms: _160  and  _161
REMARK   58  A    between atoms: _160  and  _163
REMARK   59  A    between atoms: _163  and  _164
REMARK   60  A    between atoms: _167  and  _169
REMARK   61  A    between atoms: _169  and  _170
REMARK   62  A    between atoms: _172  and  _174
REMARK   63  A    between atoms: _174  and  _175
REMARK   64  A    between atoms: _174  and  _177
REMARK   65  A    between atoms: _177  and  _178
REMARK   66  A    between atoms: _181  and  _183
REMARK   67  A    between atoms: _183  and  _184
REMARK   68  A    between atoms: _183  and  _186
REMARK   69  A    between atoms: _186  and  _187
REMARK   70  A    between atoms: _188  and  ZN_724
REMARK   71  A    between atoms: _192  and  _194
REMARK   72  A    between atoms: _194  and  _195
REMARK   73  A    between atoms: _194  and  _197
REMARK   74  A    between atoms: _197  and  _198
REMARK   75  A    between atoms: _201  and  _203
REMARK   76  A    between atoms: _203  and  _204
REMARK   77  A    between atoms: _203  and  _206
REMARK   78  A    between atoms: _206  and  _207
REMARK   79  A    between atoms: _207  and  _208
REMARK   80  A    between atoms: _211  and  _213
REMARK   81  A    between atoms: _213  and  _214
REMARK   82  A    between atoms: _213  and  _216
REMARK   83  A    between atoms: _216  and  _217
REMARK   84  A    between atoms: _227  and  _229
REMARK   85  A    between atoms: _229  and  _230
REMARK   86  A    between atoms: _232  and  _234
REMARK   87  A    between atoms: _234  and  _235
REMARK   88  A    between atoms: _234  and  _237
REMARK   89  A    between atoms: _237  and  _238
REMARK   90  A    between atoms: _241  and  _243
REMARK   91  A    between atoms: _243  and  _244
REMARK   92  A    between atoms: _243  and  _246
REMARK   93  A    between atoms: _246  and  _247
REMARK   94  A    between atoms: _252  and  _254
REMARK   95  A    between atoms: _254  and  _255
REMARK   96  A    between atoms: _254  and  _257
REMARK   97  A    between atoms: _257  and  _258
REMARK   98  A    between atoms: _261  and  _263
REMARK   99  A    between atoms: _263  and  _264
REMARK  100  A    between atoms: _263  and  _266
REMARK  101  A    between atoms: _266  and  _267
REMARK  102  A    between atoms: _273  and  _275
REMARK  103  A    between atoms: _275  and  _276
REMARK  104  A    between atoms: _275  and  _278
REMARK  105  A    between atoms: _278  and  _279
REMARK  106  A    between atoms: _282  and  _284
REMARK  107  A    between atoms: _284  and  _285
REMARK  108  A    between atoms: _284  and  _287
REMARK  109  A    between atoms: _290  and  _292
REMARK  110  A    between atoms: _292  and  _293
REMARK  111  A    between atoms: _296  and  _298
REMARK  112  A    between atoms: _298  and  _299
REMARK  113  A    between atoms: _302  and  _304
REMARK  114  A    between atoms: _315  and  _318
REMARK  115  A    between atoms: _318  and  _319
REMARK  116  A    between atoms: _319  and  _320
REMARK  117  A    between atoms: _325  and  _328
REMARK  118  A    between atoms: _328  and  _329
REMARK  119  A    between atoms: _339  and  _340
REMARK  120  A    between atoms: _348  and  _350
REMARK  121  A    between atoms: _350  and  _351
REMARK  122  A    between atoms: _350  and  _353
REMARK  123  A    between atoms: _353  and  _354
REMARK  124  A    between atoms: _356  and  _358
REMARK  125  A    between atoms: _358  and  _359
REMARK  126  A    between atoms: _358  and  _361
REMARK  127  A    between atoms: _361  and  _362
REMARK  128  A    between atoms: _366  and  ZN_723
REMARK  129  A    between atoms: _367  and  _369
REMARK  130  A    between atoms: _369  and  _370
REMARK  131  A    between atoms: _369  and  _372
REMARK  132  A    between atoms: _372  and  _373
REMARK  133  A    between atoms: _375  and  _377
REMARK  134  A    between atoms: _377  and  _378
REMARK  135  A    between atoms: _377  and  _380
REMARK  136  A    between atoms: _380  and  _381
REMARK  137  A    between atoms: _386  and  _388
REMARK  138  A    between atoms: _388  and  _389
REMARK  139  A    between atoms: _388  and  _391
REMARK  140  A    between atoms: _391  and  _392
REMARK  141  A    between atoms: _395  and  _397
REMARK  142  A    between atoms: _397  and  _398
REMARK  143  A    between atoms: _397  and  _400
REMARK  144  A    between atoms: _400  and  _401
REMARK  145  A    between atoms: _401  and  _402
REMARK  146  A    between atoms: _405  and  _407
REMARK  147  A    between atoms: _407  and  _408
REMARK  148  A    between atoms: _411  and  _413
REMARK  149  A    between atoms: _413  and  _414
REMARK  150  A    between atoms: _413  and  _416
REMARK  151  A    between atoms: _416  and  _417
REMARK  152  A    between atoms: _420  and  _422
REMARK  153  A    between atoms: _422  and  _423
REMARK  154  A    between atoms: _422  and  _425
REMARK  155  A    between atoms: _425  and  _426
REMARK  156  A    between atoms: _426  and  _427
REMARK  157  A    between atoms: _429  and  _431
REMARK  158  A    between atoms: _431  and  _432
REMARK  159  A    between atoms: _431  and  _434
REMARK  160  A    between atoms: _434  and  _435
REMARK  161  A    between atoms: _440  and  _441
REMARK  162  A    between atoms: _444  and  _445
REMARK  163  A    between atoms: _450  and  _452
REMARK  164  A    between atoms: _452  and  _453
REMARK  165  A    between atoms: _452  and  _455
REMARK  166  A    between atoms: _455  and  _456
REMARK  167  A    between atoms: _459  and  _461
REMARK  168  A    between atoms: _461  and  _462
REMARK  169  A    between atoms: _461  and  _464
REMARK  170  A    between atoms: _464  and  _465
REMARK  171  A    between atoms: _470  and  _471
REMARK  172  A    between atoms: _473  and  _475
REMARK  173  A    between atoms: _475  and  _476
REMARK  174  A    between atoms: _475  and  _478
REMARK  175  A    between atoms: _478  and  _479
REMARK  176  A    between atoms: _484  and  _486
REMARK  177  A    between atoms: _486  and  _487
REMARK  178  A    between atoms: _486  and  _489
REMARK  179  A    between atoms: _489  and  _490
REMARK  180  A    between atoms: _492  and  _494
REMARK  181  A    between atoms: _494  and  _495
REMARK  182  A    between atoms: _494  and  _497
REMARK  183  A    between atoms: _497  and  _498
REMARK  184  A    between atoms: _501  and  _503
REMARK  185  A    between atoms: _503  and  _504
REMARK  186  A    between atoms: _503  and  _506
REMARK  187  A    between atoms: _506  and  _507
REMARK  188  A    between atoms: _510  and  _512
REMARK  189  A    between atoms: _512  and  _513
REMARK  190  A    between atoms: _512  and  _515
REMARK  191  A    between atoms: _515  and  _516
REMARK  192  A    between atoms: _519  and  _521
REMARK  193  A    between atoms: _521  and  _522
REMARK  194  A    between atoms: _521  and  _524
REMARK  195  A    between atoms: _524  and  _525
REMARK  196  A    between atoms: _528  and  _530
REMARK  197  A    between atoms: _530  and  _531
REMARK  198  A    between atoms: _530  and  _533
REMARK  199  A    between atoms: _533  and  _534
REMARK  200  A    between atoms: _534  and  _535
REMARK  201  A    between atoms: _535  and  _536
REMARK  202  A    between atoms: _545  and  _547
REMARK  203  A    between atoms: _547  and  _548
REMARK  204  A    between atoms: _547  and  _550
REMARK  205  A    between atoms: _550  and  _551
REMARK  206  A    between atoms: _557  and  _559
REMARK  207  A    between atoms: _559  and  _560
REMARK  208  A    between atoms: _559  and  _562
REMARK  209  A    between atoms: _562  and  _563
REMARK  210  A    between atoms: _563  and  _564
REMARK  211  A    between atoms: _564  and  _565
REMARK  212  A    between atoms: _574  and  _576
REMARK  213  A    between atoms: _576  and  _577
REMARK  214  A    between atoms: _576  and  _579
REMARK  215  A    between atoms: _579  and  _580
REMARK  216  A    between atoms: _582  and  _584
REMARK  217  A    between atoms: _584  and  _585
REMARK  218  A    between atoms: _584  and  _587
REMARK  219  A    between atoms: _587  and  _588
REMARK  220  A    between atoms: _591  and  _593
REMARK  221  A    between atoms: _593  and  _594
REMARK  222  A    between atoms: _593  and  _596
REMARK  223  A    between atoms: _596  and  _597
REMARK  224  A    between atoms: _601  and  _602
REMARK  225  A    between atoms: _607  and  _609
REMARK  226  A    between atoms: _609  and  _610
REMARK  227  A    between atoms: _609  and  _612
REMARK  228  A    between atoms: _612  and  _613
REMARK  229  A    between atoms: _618  and  _620
REMARK  230  A    between atoms: _620  and  _621
REMARK  231  A    between atoms: _620  and  _623
REMARK  232  A    between atoms: _623  and  _624
REMARK  233  A    between atoms: _627  and  _629
REMARK  234  A    between atoms: _629  and  _630
REMARK  235  A    between atoms: _629  and  _632
REMARK  236  A    between atoms: _632  and  _633
REMARK  237  A    between atoms: _639  and  _641
REMARK  238  A    between atoms: _641  and  _642
REMARK  239  A    between atoms: _641  and  _644
REMARK  240  A    between atoms: _644  and  _645
REMARK  241  A    between atoms: _650  and  _652
REMARK  242  A    between atoms: _652  and  _653
REMARK  243  A    between atoms: _652  and  _655
REMARK  244  A    between atoms: _655  and  _656
REMARK  245  A    between atoms: _658  and  _660
REMARK  246  A    between atoms: _660  and  _661
REMARK  247  A    between atoms: _664  and  _666
REMARK  248  A    between atoms: _666  and  _667
REMARK  249  A    between atoms: _666  and  _669
REMARK  250  A    between atoms: _669  and  _670
REMARK  251  A    between atoms: _675  and  _677
REMARK  252  A    between atoms: _677  and  _678
REMARK  253  A    between atoms: _677  and  _680
REMARK  254  A    between atoms: _680  and  _681
REMARK  255  A    between atoms: _684  and  _686
REMARK  256  A    between atoms: _686  and  _687
REMARK  257  A    between atoms: _686  and  _689
REMARK  258  A    between atoms: _689  and  _690
REMARK  259  A    between atoms: _690  and  _691
REMARK  260  A    between atoms: _693  and  _695
REMARK  261  A    between atoms: _695  and  _696
REMARK  262  A    between atoms: _695  and  _698
REMARK  263  A    between atoms: _698  and  _699
REMARK  264  A    between atoms: _704  and  _705
REMARK  265  A    between atoms: _708  and  _709
REMARK  266  A    between atoms: _714  and  _716
REMARK  267  A    between atoms: _716  and  _717
REMARK  268  A    between atoms: _716  and  _719
REMARK  269  A    between atoms: _719  and  _720
REMARK                            x       y       z     vdW  Elec       q    Type
REMARK                         _______ _______ _______ _____ _____    ______ ____
ROOT
ATOM      1  O   HOH     1      29.220  43.552  18.230  0.00  0.00    +0.000 OA
ENDROOT
TORSDOF 0
REMARK  Name = ../refined-set-2016/1hfs/1hfs_pocket.pdb
REMARK  269 active torsions:
REMARK  status: ('A' for Active; 'I' for Inactive)
REMARK    1  A    between atoms: _1  and  _3
REMARK    2  A    between atoms: _3  and  _4
REMARK    3  A    between atoms: _3  and  _6
REMARK    4  A    between atoms: _6  and  _7
REMARK    5  A    between atoms: _11  and  ZN_724
REMARK    6  A    between atoms: _12  and  _14
REMARK    7  A    between atoms: _14  and  _15
REMARK    8  A    between atoms: _14  and  _17
REMARK    9  A    between atoms: _17  and  _18
REMARK   10  A    between atoms: _18  and  _20
REMARK   11  A    between atoms: _20  and  ZN_724
REMARK   12  A    between atoms: _21  and  _23
REMARK   13  A    between atoms: _23  and  _24
REMARK   14  A    between atoms: _23  and  _26
REMARK   15  A    between atoms: _26  and  _27
REMARK   16  A    between atoms: _33  and  _35
REMARK   17  A    between atoms: _35  and  _36
REMARK   18  A    between atoms: _35  and  _38
REMARK   19  A    between atoms: _38  and  _39
REMARK   20  A    between atoms: _44  and  _45
REMARK   21  A    between atoms: _48  and  _49
REMARK   22  A    between atoms: _54  and  _56
REMARK   23  A    between atoms: _56  and  _57
REMARK   24  A    between atoms: _56  and  _59
REMARK   25  A    between atoms: _59  and  _60
REMARK   26  A    between atoms: _66  and  _68
REMARK   27  A    between atoms: _68  and  _69
REMARK   28  A    between atoms: _68  and  _71
REMARK   29  A    between atoms: _71  and  _72
REMARK   30  A    between atoms: _76  and  _77
REMARK   31  A    between atoms: _82  and  _84
REMARK   32  A    between atoms: _89  and  _92
REMARK   33  A    between atoms: _92  and  _93
REMARK   34  A    between atoms: _100  and  _103
REMARK   35  A    between atoms: _101  and  _106
REMARK   36  A    between atoms: _106  and  _108
REMARK   37  A    between atoms: _108  and  _109
REMARK   38  A    between atoms: _108  and  _111
REMARK   39  A    between atoms: _111  and  _112
REMARK   40  A    between atoms: _115  and  _117
REMARK   41  A    between atoms: _117  and  _118
REMARK   42  A    between atoms: _121  and  _123
REMARK   43  A    between atoms: _123  and  _124
REMARK   44  A    between atoms: _123  and  _126
REMARK   45  A    between atoms: _126  and  _127
REMARK   46  A    between atoms: _131  and  ZN_724
REMARK   47  A    between atoms: _132  and  _134
REMARK   48  A    between atoms: _134  and  _135
REMARK   49  A    between atoms: _138  and  _140
REMARK   50  A    between atoms: _140  and  _141
REMARK   51  A    between atoms: _140  and  _143
REMARK   52  A    between atoms: _143  and  _144
REMARK   53  A    between atoms: _149  and  _150
REMARK   54  A    between atoms: _152  and  _154
REMARK   55  A    between atoms: _154  and  _155
REMARK   56  A    between atoms: _158  and  _160
REMARK   57  A    between atoms: _160  and  _161
REMARK   58  A    between atoms: _160  and  _163
REMARK   59  A    between atoms: _163  and  _164
REMARK   60  A    between atoms: _167  and  _169
REMARK   61  A    between atoms: _169  and  _170
REMARK   62  A    between atoms: _172  and  _174
REMARK   63  A    between atoms: _174  and  _175
REMARK   64  A    between atoms: _174  and  _177
REMARK   65  A    between atoms: _177  and  _178
REMARK   66  A    between atoms: _181  and  _183
REMARK   67  A    between atoms: _183  and  _184
REMARK   68  A    between atoms: _183  and  _186
REMARK   69  A    between atoms: _186  and  _187
REMARK   70  A    between atoms: _188  and  ZN_724
REMARK   71  A    between atoms: _192  and  _194
REMARK   72  A    between atoms: _194  and  _195
REMARK   73  A    between atoms: _194  and  _197
REMARK   74  A    between atoms: _197  and  _198
REMARK   75  A    between atoms: _201  and  _203
REMARK   76  A    between atoms: _203  and  _204
REMARK   77  A    between atoms: _203  and  _206
REMARK   78  A    between atoms: _206  and  _207
REMARK   79  A    between atoms: _207  and  _208
REMARK   80  A    between atoms: _211  and  _213
REMARK   81  A    between atoms: _213  and  _214
REMARK   82  A    between atoms: _213  and  _216
REMARK   83  A    between atoms: _216  and  _217
REMARK   84  A    between atoms: _227  and  _229
REMARK   85  A    between atoms: _229  and  _230
REMARK   86  A    between atoms: _232  and  _234
REMARK   87  A    between atoms: _234  and  _235
REMARK   88  A    between atoms: _234  and  _237
REMARK   89  A    between atoms: _237  and  _238
REMARK   90  A    between atoms: _241  and  _243
REMARK   91  A    between atoms: _243  and  _244
REMARK   92  A    between atoms: _243  and  _246
REMARK   93  A    between atoms: _246  and  _247
REMARK   94  A    between atoms: _252  and  _254
REMARK   95  A    between atoms: _254  and  _255
REMARK   96  A    between atoms: _254  and  _257
REMARK   97  A    between atoms: _257  and  _258
REMARK   98  A    between atoms: _261  and  _263
REMARK   99  A    between atoms: _263  and  _264
REMARK  100  A    between atoms: _263  and  _266
REMARK  101  A    between atoms: _266  and  _267
REMARK  102  A    between atoms: _273  and  _275
REMARK  103  A    between atoms: _275  and  _276
REMARK  104  A    between atoms: _275  and  _278
REMARK  105  A    between atoms: _278  and  _279
REMARK  106  A    between atoms: _282  and  _284
REMARK  107  A    between atoms: _284  and  _285
REMARK  108  A    between atoms: _284  and  _287
REMARK  109  A    between atoms: _290  and  _292
REMARK  110  A    between atoms: _292  and  _293
REMARK  111  A    between atoms: _296  and  _298
REMARK  112  A    between atoms: _298  and  _299
REMARK  113  A    between atoms: _302  and  _304
REMARK  114  A    between atoms: _315  and  _318
REMARK  115  A    between atoms: _318  and  _319
REMARK  116  A    between atoms: _319  and  _320
REMARK  117  A    between atoms: _325  and  _328
REMARK  118  A    between atoms: _328  and  _329
REMARK  119  A    between atoms: _339  and  _340
REMARK  120  A    between atoms: _348  and  _350
REMARK  121  A    between atoms: _350  and  _351
REMARK  122  A    between atoms: _350  and  _353
REMARK  123  A    between atoms: _353  and  _354
REMARK  124  A    between atoms: _356  and  _358
REMARK  125  A    between atoms: _358  and  _359
REMARK  126  A    between atoms: _358  and  _361
REMARK  127  A    between atoms: _361  and  _362
REMARK  128  A    between atoms: _366  and  ZN_723
REMARK  129  A    between atoms: _367  and  _369
REMARK  130  A    between atoms: _369  and  _370
REMARK  131  A    between atoms: _369  and  _372
REMARK  132  A    between atoms: _372  and  _373
REMARK  133  A    between atoms: _375  and  _377
REMARK  134  A    between atoms: _377  and  _378
REMARK  135  A    between atoms: _377  and  _380
REMARK  136  A    between atoms: _380  and  _381
REMARK  137  A    between atoms: _386  and  _388
REMARK  138  A    between atoms: _388  and  _389
REMARK  139  A    between atoms: _388  and  _391
REMARK  140  A    between atoms: _391  and  _392
REMARK  141  A    between atoms: _395  and  _397
REMARK  142  A    between atoms: _397  and  _398
REMARK  143  A    between atoms: _397  and  _400
REMARK  144  A    between atoms: _400  and  _401
REMARK  145  A    between atoms: _401  and  _402
REMARK  146  A    between atoms: _405  and  _407
REMARK  147  A    between atoms: _407  and  _408
REMARK  148  A    between atoms: _411  and  _413
REMARK  149  A    between atoms: _413  and  _414
REMARK  150  A    between atoms: _413  and  _416
REMARK  151  A    between atoms: _416  and  _417
REMARK  152  A    between atoms: _420  and  _422
REMARK  153  A    between atoms: _422  and  _423
REMARK  154  A    between atoms: _422  and  _425
REMARK  155  A    between atoms: _425  and  _426
REMARK  156  A    between atoms: _426  and  _427
REMARK  157  A    between atoms: _429  and  _431
REMARK  158  A    between atoms: _431  and  _432
REMARK  159  A    between atoms: _431  and  _434
REMARK  160  A    between atoms: _434  and  _435
REMARK  161  A    between atoms: _440  and  _441
REMARK  162  A    between atoms: _444  and  _445
REMARK  163  A    between atoms: _450  and  _452
REMARK  164  A    between atoms: _452  and  _453
REMARK  165  A    between atoms: _452  and  _455
REMARK  166  A    between atoms: _455  and  _456
REMARK  167  A    between atoms: _459  and  _461
REMARK  168  A    between atoms: _461  and  _462
REMARK  169  A    between atoms: _461  and  _464
REMARK  170  A    between atoms: _464  and  _465
REMARK  171  A    between atoms: _470  and  _471
REMARK  172  A    between atoms: _473  and  _475
REMARK  173  A    between atoms: _475  and  _476
REMARK  174  A    between atoms: _475  and  _478
REMARK  175  A    between atoms: _478  and  _479
REMARK  176  A    between atoms: _484  and  _486
REMARK  177  A    between atoms: _486  and  _487
REMARK  178  A    between atoms: _486  and  _489
REMARK  179  A    between atoms: _489  and  _490
REMARK  180  A    between atoms: _492  and  _494
REMARK  181  A    between atoms: _494  and  _495
REMARK  182  A    between atoms: _494  and  _497
REMARK  183  A    between atoms: _497  and  _498
REMARK  184  A    between atoms: _501  and  _503
REMARK  185  A    between atoms: _503  and  _504
REMARK  186  A    between atoms: _503  and  _506
REMARK  187  A    between atoms: _506  and  _507
REMARK  188  A    between atoms: _510  and  _512
REMARK  189  A    between atoms: _512  and  _513
REMARK  190  A    between atoms: _512  and  _515
REMARK  191  A    between atoms: _515  and  _516
REMARK  192  A    between atoms: _519  and  _521
REMARK  193  A    between atoms: _521  and  _522
REMARK  194  A    between atoms: _521  and  _524
REMARK  195  A    between atoms: _524  and  _525
REMARK  196  A    between atoms: _528  and  _530
REMARK  197  A    between atoms: _530  and  _531
REMARK  198  A    between atoms: _530  and  _533
REMARK  199  A    between atoms: _533  and  _534
REMARK  200  A    between atoms: _534  and  _535
REMARK  201  A    between atoms: _535  and  _536
REMARK  202  A    between atoms: _545  and  _547
REMARK  203  A    between atoms: _547  and  _548
REMARK  204  A    between atoms: _547  and  _550
REMARK  205  A    between atoms: _550  and  _551
REMARK  206  A    between atoms: _557  and  _559
REMARK  207  A    between atoms: _559  and  _560
REMARK  208  A    between atoms: _559  and  _562
REMARK  209  A    between atoms: _562  and  _563
REMARK  210  A    between atoms: _563  and  _564
REMARK  211  A    between atoms: _564  and  _565
REMARK  212  A    between atoms: _574  and  _576
REMARK  213  A    between atoms: _576  and  _577
REMARK  214  A    between atoms: _576  and  _579
REMARK  215  A    between atoms: _579  and  _580
REMARK  216  A    between atoms: _582  and  _584
REMARK  217  A    between atoms: _584  and  _585
REMARK  218  A    between atoms: _584  and  _587
REMARK  219  A    between atoms: _587  and  _588
REMARK  220  A    between atoms: _591  and  _593
REMARK  221  A    between atoms: _593  and  _594
REMARK  222  A    between atoms: _593  and  _596
REMARK  223  A    between atoms: _596  and  _597
REMARK  224  A    between atoms: _601  and  _602
REMARK  225  A    between atoms: _607  and  _609
REMARK  226  A    between atoms: _609  and  _610
REMARK  227  A    between atoms: _609  and  _612
REMARK  228  A    between atoms: _612  and  _613
REMARK  229  A    between atoms: _618  and  _620
REMARK  230  A    between atoms: _620  and  _621
REMARK  231  A    between atoms: _620  and  _623
REMARK  232  A    between atoms: _623  and  _624
REMARK  233  A    between atoms: _627  and  _629
REMARK  234  A    between atoms: _629  and  _630
REMARK  235  A    between atoms: _629  and  _632
REMARK  236  A    between atoms: _632  and  _633
REMARK  237  A    between atoms: _639  and  _641
REMARK  238  A    between atoms: _641  and  _642
REMARK  239  A    between atoms: _641  and  _644
REMARK  240  A    between atoms: _644  and  _645
REMARK  241  A    between atoms: _650  and  _652
REMARK  242  A    between atoms: _652  and  _653
REMARK  243  A    between atoms: _652  and  _655
REMARK  244  A    between atoms: _655  and  _656
REMARK  245  A    between atoms: _658  and  _660
REMARK  246  A    between atoms: _660  and  _661
REMARK  247  A    between atoms: _664  and  _666
REMARK  248  A    between atoms: _666  and  _667
REMARK  249  A    between atoms: _666  and  _669
REMARK  250  A    between atoms: _669  and  _670
REMARK  251  A    between atoms: _675  and  _677
REMARK  252  A    between atoms: _677  and  _678
REMARK  253  A    between atoms: _677  and  _680
REMARK  254  A    between atoms: _680  and  _681
REMARK  255  A    between atoms: _684  and  _686
REMARK  256  A    between atoms: _686  and  _687
REMARK  257  A    between atoms: _686  and  _689
REMARK  258  A    between atoms: _689  and  _690
REMARK  259  A    between atoms: _690  and  _691
REMARK  260  A    between atoms: _693  and  _695
REMARK  261  A    between atoms: _695  and  _696
REMARK  262  A    between atoms: _695  and  _698
REMARK  263  A    between atoms: _698  and  _699
REMARK  264  A    between atoms: _704  and  _705
REMARK  265  A    between atoms: _708  and  _709
REMARK  266  A    between atoms: _714  and  _716
REMARK  267  A    between atoms: _716  and  _717
REMARK  268  A    between atoms: _716  and  _719
REMARK  269  A    between atoms: _719  and  _720
REMARK                            x       y       z     vdW  Elec       q    Type
REMARK                         _______ _______ _______ _____ _____    ______ ____
ROOT
ATOM      1  O   HOH     1      22.152  43.977  25.294  0.00  0.00    +0.000 OA
ENDROOT
TORSDOF 0
