REMARK  Name = ../refined-set-2016/4djo/4djo_pocket.pdb
REMARK  227 active torsions:
REMARK  status: ('A' for Active; 'I' for Inactive)
REMARK    1  A    between atoms: _1  and  _3
REMARK    2  A    between atoms: _3  and  _4
REMARK    3  A    between atoms: _3  and  _6
REMARK    4  A    between atoms: _6  and  _7
REMARK    5  A    between atoms: _7  and  _8
REMARK    6  A    between atoms: _8  and  _9
REMARK    7  A    between atoms: _18  and  _20
REMARK    8  A    between atoms: _20  and  _21
REMARK    9  A    between atoms: _20  and  _23
REMARK   10  A    between atoms: _23  and  _24
REMARK   11  A    between atoms: _27  and  _29
REMARK   12  A    between atoms: _29  and  _30
REMARK   13  A    between atoms: _29  and  _32
REMARK   14  A    between atoms: _32  and  _33
REMARK   15  A    between atoms: _36  and  _38
REMARK   16  A    between atoms: _38  and  _39
REMARK   17  A    between atoms: _38  and  _41
REMARK   18  A    between atoms: _41  and  _42
REMARK   19  A    between atoms: _45  and  _47
REMARK   20  A    between atoms: _47  and  _48
REMARK   21  A    between atoms: _47  and  _50
REMARK   22  A    between atoms: _50  and  _51
REMARK   23  A    between atoms: _54  and  _56
REMARK   24  A    between atoms: _56  and  _57
REMARK   25  A    between atoms: _59  and  _61
REMARK   26  A    between atoms: _61  and  _62
REMARK   27  A    between atoms: _65  and  _67
REMARK   28  A    between atoms: _67  and  _68
REMARK   29  A    between atoms: _67  and  _70
REMARK   30  A    between atoms: _70  and  _71
REMARK   31  A    between atoms: _74  and  _76
REMARK   32  A    between atoms: _76  and  _77
REMARK   33  A    between atoms: _76  and  _79
REMARK   34  A    between atoms: _79  and  _80
REMARK   35  A    between atoms: _83  and  _85
REMARK   36  A    between atoms: _85  and  _86
REMARK   37  A    between atoms: _85  and  _88
REMARK   38  A    between atoms: _88  and  _89
REMARK   39  A    between atoms: _92  and  _94
REMARK   40  A    between atoms: _94  and  _95
REMARK   41  A    between atoms: _94  and  _97
REMARK   42  A    between atoms: _100  and  _102
REMARK   43  A    between atoms: _102  and  _103
REMARK   44  A    between atoms: _102  and  _105
REMARK   45  A    between atoms: _105  and  _106
REMARK   46  A    between atoms: _106  and  _107
REMARK   47  A    between atoms: _109  and  _111
REMARK   48  A    between atoms: _111  and  _112
REMARK   49  A    between atoms: _111  and  _114
REMARK   50  A    between atoms: _114  and  _115
REMARK   51  A    between atoms: _118  and  _120
REMARK   52  A    between atoms: _120  and  _121
REMARK   53  A    between atoms: _123  and  _125
REMARK   54  A    between atoms: _125  and  _126
REMARK   55  A    between atoms: _128  and  _130
REMARK   56  A    between atoms: _130  and  _131
REMARK   57  A    between atoms: _130  and  _133
REMARK   58  A    between atoms: _133  and  _134
REMARK   59  A    between atoms: _137  and  _139
REMARK   60  A    between atoms: _139  and  _140
REMARK   61  A    between atoms: _142  and  _144
REMARK   62  A    between atoms: _144  and  _145
REMARK   63  A    between atoms: _147  and  _149
REMARK   64  A    between atoms: _149  and  _150
REMARK   65  A    between atoms: _149  and  _152
REMARK   66  A    between atoms: _152  and  _153
REMARK   67  A    between atoms: _159  and  _161
REMARK   68  A    between atoms: _161  and  _162
REMARK   69  A    between atoms: _161  and  _164
REMARK   70  A    between atoms: _164  and  _165
REMARK   71  A    between atoms: _168  and  _170
REMARK   72  A    between atoms: _170  and  _171
REMARK   73  A    between atoms: _170  and  _173
REMARK   74  A    between atoms: _176  and  _178
REMARK   75  A    between atoms: _178  and  _179
REMARK   76  A    between atoms: _178  and  _181
REMARK   77  A    between atoms: _181  and  _182
REMARK   78  A    between atoms: _186  and  _187
REMARK   79  A    between atoms: _192  and  _194
REMARK   80  A    between atoms: _194  and  _195
REMARK   81  A    between atoms: _194  and  _197
REMARK   82  A    between atoms: _197  and  _198
REMARK   83  A    between atoms: _202  and  _203
REMARK   84  A    between atoms: _208  and  _210
REMARK   85  A    between atoms: _210  and  _211
REMARK   86  A    between atoms: _210  and  _213
REMARK   87  A    between atoms: _216  and  _218
REMARK   88  A    between atoms: _218  and  _219
REMARK   89  A    between atoms: _218  and  _221
REMARK   90  A    between atoms: _221  and  _222
REMARK   91  A    between atoms: _227  and  _229
REMARK   92  A    between atoms: _229  and  _230
REMARK   93  A    between atoms: _229  and  _232
REMARK   94  A    between atoms: _232  and  _233
REMARK   95  A    between atoms: _236  and  _238
REMARK   96  A    between atoms: _238  and  _239
REMARK   97  A    between atoms: _238  and  _241
REMARK   98  A    between atoms: _241  and  _242
REMARK   99  A    between atoms: _245  and  _247
REMARK  100  A    between atoms: _247  and  _248
REMARK  101  A    between atoms: _250  and  _252
REMARK  102  A    between atoms: _252  and  _253
REMARK  103  A    between atoms: _252  and  _255
REMARK  104  A    between atoms: _255  and  _256
REMARK  105  A    between atoms: _256  and  _257
REMARK  106  A    between atoms: _257  and  _258
REMARK  107  A    between atoms: _267  and  _269
REMARK  108  A    between atoms: _269  and  _270
REMARK  109  A    between atoms: _269  and  _272
REMARK  110  A    between atoms: _272  and  _273
REMARK  111  A    between atoms: _278  and  _280
REMARK  112  A    between atoms: _280  and  _281
REMARK  113  A    between atoms: _280  and  _283
REMARK  114  A    between atoms: _283  and  _284
REMARK  115  A    between atoms: _284  and  _285
REMARK  116  A    between atoms: _285  and  _286
REMARK  117  A    between atoms: _295  and  _297
REMARK  118  A    between atoms: _297  and  _298
REMARK  119  A    between atoms: _297  and  _300
REMARK  120  A    between atoms: _300  and  _301
REMARK  121  A    between atoms: _304  and  _306
REMARK  122  A    between atoms: _306  and  _307
REMARK  123  A    between atoms: _306  and  _309
REMARK  124  A    between atoms: _309  and  _310
REMARK  125  A    between atoms: _313  and  _315
REMARK  126  A    between atoms: _315  and  _316
REMARK  127  A    between atoms: _315  and  _318
REMARK  128  A    between atoms: _318  and  _319
REMARK  129  A    between atoms: _322  and  _324
REMARK  130  A    between atoms: _324  and  _325
REMARK  131  A    between atoms: _324  and  _327
REMARK  132  A    between atoms: _327  and  _328
REMARK  133  A    between atoms: _331  and  _333
REMARK  134  A    between atoms: _333  and  _334
REMARK  135  A    between atoms: _336  and  _338
REMARK  136  A    between atoms: _338  and  _339
REMARK  137  A    between atoms: _342  and  _344
REMARK  138  A    between atoms: _344  and  _345
REMARK  139  A    between atoms: _344  and  _347
REMARK  140  A    between atoms: _347  and  _348
REMARK  141  A    between atoms: _351  and  _353
REMARK  142  A    between atoms: _353  and  _354
REMARK  143  A    between atoms: _353  and  _356
REMARK  144  A    between atoms: _356  and  _357
REMARK  145  A    between atoms: _360  and  _362
REMARK  146  A    between atoms: _362  and  _363
REMARK  147  A    between atoms: _362  and  _365
REMARK  148  A    between atoms: _365  and  _366
REMARK  149  A    between atoms: _369  and  _371
REMARK  150  A    between atoms: _371  and  _372
REMARK  151  A    between atoms: _371  and  _374
REMARK  152  A    between atoms: _377  and  _379
REMARK  153  A    between atoms: _379  and  _380
REMARK  154  A    between atoms: _379  and  _382
REMARK  155  A    between atoms: _382  and  _383
REMARK  156  A    between atoms: _383  and  _384
REMARK  157  A    between atoms: _384  and  _385
REMARK  158  A    between atoms: _385  and  _386
REMARK  159  A    between atoms: _390  and  _392
REMARK  160  A    between atoms: _392  and  _393
REMARK  161  A    between atoms: _392  and  _395
REMARK  162  A    between atoms: _395  and  _396
REMARK  163  A    between atoms: _396  and  _397
REMARK  164  A    between atoms: _399  and  _401
REMARK  165  A    between atoms: _401  and  _402
REMARK  166  A    between atoms: _401  and  _404
REMARK  167  A    between atoms: _404  and  _405
REMARK  168  A    between atoms: _408  and  _410
REMARK  169  A    between atoms: _410  and  _411
REMARK  170  A    between atoms: _413  and  _415
REMARK  171  A    between atoms: _415  and  _416
REMARK  172  A    between atoms: _418  and  _420
REMARK  173  A    between atoms: _420  and  _421
REMARK  174  A    between atoms: _420  and  _423
REMARK  175  A    between atoms: _423  and  _424
REMARK  176  A    between atoms: _427  and  _429
REMARK  177  A    between atoms: _429  and  _430
REMARK  178  A    between atoms: _432  and  _434
REMARK  179  A    between atoms: _434  and  _435
REMARK  180  A    between atoms: _437  and  _439
REMARK  181  A    between atoms: _439  and  _440
REMARK  182  A    between atoms: _439  and  _442
REMARK  183  A    between atoms: _442  and  _443
REMARK  184  A    between atoms: _449  and  _451
REMARK  185  A    between atoms: _451  and  _452
REMARK  186  A    between atoms: _451  and  _454
REMARK  187  A    between atoms: _454  and  _455
REMARK  188  A    between atoms: _458  and  _460
REMARK  189  A    between atoms: _460  and  _461
REMARK  190  A    between atoms: _460  and  _463
REMARK  191  A    between atoms: _466  and  _468
REMARK  192  A    between atoms: _468  and  _469
REMARK  193  A    between atoms: _468  and  _471
REMARK  194  A    between atoms: _471  and  _472
REMARK  195  A    between atoms: _476  and  _477
REMARK  196  A    between atoms: _482  and  _484
REMARK  197  A    between atoms: _484  and  _485
REMARK  198  A    between atoms: _484  and  _487
REMARK  199  A    between atoms: _487  and  _488
REMARK  200  A    between atoms: _492  and  _493
REMARK  201  A    between atoms: _498  and  _500
REMARK  202  A    between atoms: _500  and  _501
REMARK  203  A    between atoms: _500  and  _503
REMARK  204  A    between atoms: _506  and  _508
REMARK  205  A    between atoms: _508  and  _509
REMARK  206  A    between atoms: _508  and  _511
REMARK  207  A    between atoms: _511  and  _512
REMARK  208  A    between atoms: _517  and  _519
REMARK  209  A    between atoms: _519  and  _520
REMARK  210  A    between atoms: _519  and  _522
REMARK  211  A    between atoms: _522  and  _523
REMARK  212  A    between atoms: _526  and  _528
REMARK  213  A    between atoms: _528  and  _529
REMARK  214  A    between atoms: _528  and  _531
REMARK  215  A    between atoms: _531  and  _532
REMARK  216  A    between atoms: _535  and  _537
REMARK  217  A    between atoms: _537  and  _538
REMARK  218  A    between atoms: _540  and  _542
REMARK  219  A    between atoms: _542  and  _543
REMARK  220  A    between atoms: _542  and  _545
REMARK  221  A    between atoms: _545  and  _546
REMARK  222  A    between atoms: _546  and  _547
REMARK  223  A    between atoms: _547  and  _548
REMARK  224  A    between atoms: _557  and  _559
REMARK  225  A    between atoms: _559  and  _560
REMARK  226  A    between atoms: _559  and  _562
REMARK  227  A    between atoms: _562  and  _563
REMARK                            x       y       z     vdW  Elec       q    Type
REMARK                         _______ _______ _______ _____ _____    ______ ____
ROOT
ATOM      1  NE  ARG A   1      21.311  36.952  23.250  0.00  0.00    -0.265 N 
ATOM      2  HE  ARG A   1      20.514  36.385  22.898  0.00  0.00    +0.259 HD
ATOM      3  CZ  ARG A   1      21.392  38.220  22.871  0.00  0.00    +0.342 C 
ATOM      4  NH2 ARG A   1      22.377  38.985  23.332  0.00  0.00    -0.292 N 
ATOM      5 HH21 ARG A   1      23.080  38.588  23.987  0.00  0.00    +0.255 HD
ATOM      6 HH22 ARG A   1      22.444  39.980  23.037  0.00  0.00    +0.255 HD
ATOM      7  NH1 ARG A   1      20.488  38.726  22.054  0.00  0.00    -0.292 N 
ATOM      8 HH11 ARG A   1      20.553  39.721  21.758  0.00  0.00    +0.255 HD
ATOM      9 HH12 ARG A   1      19.710  38.130  21.706  0.00  0.00    +0.255 HD
ENDROOT
BRANCH   1  10
ATOM     10  CD  ARG A   1      22.273  36.309  24.130  0.00  0.00    +0.174 C 
BRANCH  10  11
ATOM     11  CG  ARG A   1      21.614  35.314  25.065  0.00  0.00    +0.045 C 
BRANCH  11  12
ATOM     12  CB  ARG A   1      22.661  34.513  25.809  0.00  0.00    +0.029 C 
BRANCH  12  13
ATOM     13  CA  ARG A   1      22.064  33.538  26.821  0.00  0.00    +0.133 C 
BRANCH  13  14
ATOM     14  N   ARG A   1      21.393  34.265  27.883  0.00  0.00    -0.239 NA
ATOM     15  H   ARG A   1      21.398  35.305  27.877  0.00  0.00    +0.142 HD
ENDBRANCH  13  14
BRANCH  13  16
ATOM     16  C   ARG A   1      23.164  32.639  27.384  0.00  0.00    +0.224 C 
ATOM     17  O   ARG A   1      23.947  33.073  28.235  0.00  0.00    -0.287 OA
ENDBRANCH  13  16
ENDBRANCH  12  13
ENDBRANCH  11  12
ENDBRANCH  10  11
ENDBRANCH   1  10
TORSDOF 6
REMARK  Name = ../refined-set-2016/4djo/4djo_pocket.pdb
REMARK  227 active torsions:
REMARK  status: ('A' for Active; 'I' for Inactive)
REMARK    1  A    between atoms: _1  and  _3
REMARK    2  A    between atoms: _3  and  _4
REMARK    3  A    between atoms: _3  and  _6
REMARK    4  A    between atoms: _6  and  _7
REMARK    5  A    between atoms: _7  and  _8
REMARK    6  A    between atoms: _8  and  _9
REMARK    7  A    between atoms: _18  and  _20
REMARK    8  A    between atoms: _20  and  _21
REMARK    9  A    between atoms: _20  and  _23
REMARK   10  A    between atoms: _23  and  _24
REMARK   11  A    between atoms: _27  and  _29
REMARK   12  A    between atoms: _29  and  _30
REMARK   13  A    between atoms: _29  and  _32
REMARK   14  A    between atoms: _32  and  _33
REMARK   15  A    between atoms: _36  and  _38
REMARK   16  A    between atoms: _38  and  _39
REMARK   17  A    between atoms: _38  and  _41
REMARK   18  A    between atoms: _41  and  _42
REMARK   19  A    between atoms: _45  and  _47
REMARK   20  A    between atoms: _47  and  _48
REMARK   21  A    between atoms: _47  and  _50
REMARK   22  A    between atoms: _50  and  _51
REMARK   23  A    between atoms: _54  and  _56
REMARK   24  A    between atoms: _56  and  _57
REMARK   25  A    between atoms: _59  and  _61
REMARK   26  A    between atoms: _61  and  _62
REMARK   27  A    between atoms: _65  and  _67
REMARK   28  A    between atoms: _67  and  _68
REMARK   29  A    between atoms: _67  and  _70
REMARK   30  A    between atoms: _70  and  _71
REMARK   31  A    between atoms: _74  and  _76
REMARK   32  A    between atoms: _76  and  _77
REMARK   33  A    between atoms: _76  and  _79
REMARK   34  A    between atoms: _79  and  _80
REMARK   35  A    between atoms: _83  and  _85
REMARK   36  A    between atoms: _85  and  _86
REMARK   37  A    between atoms: _85  and  _88
REMARK   38  A    between atoms: _88  and  _89
REMARK   39  A    between atoms: _92  and  _94
REMARK   40  A    between atoms: _94  and  _95
REMARK   41  A    between atoms: _94  and  _97
REMARK   42  A    between atoms: _100  and  _102
REMARK   43  A    between atoms: _102  and  _103
REMARK   44  A    between atoms: _102  and  _105
REMARK   45  A    between atoms: _105  and  _106
REMARK   46  A    between atoms: _106  and  _107
REMARK   47  A    between atoms: _109  and  _111
REMARK   48  A    between atoms: _111  and  _112
REMARK   49  A    between atoms: _111  and  _114
REMARK   50  A    between atoms: _114  and  _115
REMARK   51  A    between atoms: _118  and  _120
REMARK   52  A    between atoms: _120  and  _121
REMARK   53  A    between atoms: _123  and  _125
REMARK   54  A    between atoms: _125  and  _126
REMARK   55  A    between atoms: _128  and  _130
REMARK   56  A    between atoms: _130  and  _131
REMARK   57  A    between atoms: _130  and  _133
REMARK   58  A    between atoms: _133  and  _134
REMARK   59  A    between atoms: _137  and  _139
REMARK   60  A    between atoms: _139  and  _140
REMARK   61  A    between atoms: _142  and  _144
REMARK   62  A    between atoms: _144  and  _145
REMARK   63  A    between atoms: _147  and  _149
REMARK   64  A    between atoms: _149  and  _150
REMARK   65  A    between atoms: _149  and  _152
REMARK   66  A    between atoms: _152  and  _153
REMARK   67  A    between atoms: _159  and  _161
REMARK   68  A    between atoms: _161  and  _162
REMARK   69  A    between atoms: _161  and  _164
REMARK   70  A    between atoms: _164  and  _165
REMARK   71  A    between atoms: _168  and  _170
REMARK   72  A    between atoms: _170  and  _171
REMARK   73  A    between atoms: _170  and  _173
REMARK   74  A    between atoms: _176  and  _178
REMARK   75  A    between atoms: _178  and  _179
REMARK   76  A    between atoms: _178  and  _181
REMARK   77  A    between atoms: _181  and  _182
REMARK   78  A    between atoms: _186  and  _187
REMARK   79  A    between atoms: _192  and  _194
REMARK   80  A    between atoms: _194  and  _195
REMARK   81  A    between atoms: _194  and  _197
REMARK   82  A    between atoms: _197  and  _198
REMARK   83  A    between atoms: _202  and  _203
REMARK   84  A    between atoms: _208  and  _210
REMARK   85  A    between atoms: _210  and  _211
REMARK   86  A    between atoms: _210  and  _213
REMARK   87  A    between atoms: _216  and  _218
REMARK   88  A    between atoms: _218  and  _219
REMARK   89  A    between atoms: _218  and  _221
REMARK   90  A    between atoms: _221  and  _222
REMARK   91  A    between atoms: _227  and  _229
REMARK   92  A    between atoms: _229  and  _230
REMARK   93  A    between atoms: _229  and  _232
REMARK   94  A    between atoms: _232  and  _233
REMARK   95  A    between atoms: _236  and  _238
REMARK   96  A    between atoms: _238  and  _239
REMARK   97  A    between atoms: _238  and  _241
REMARK   98  A    between atoms: _241  and  _242
REMARK   99  A    between atoms: _245  and  _247
REMARK  100  A    between atoms: _247  and  _248
REMARK  101  A    between atoms: _250  and  _252
REMARK  102  A    between atoms: _252  and  _253
REMARK  103  A    between atoms: _252  and  _255
REMARK  104  A    between atoms: _255  and  _256
REMARK  105  A    between atoms: _256  and  _257
REMARK  106  A    between atoms: _257  and  _258
REMARK  107  A    between atoms: _267  and  _269
REMARK  108  A    between atoms: _269  and  _270
REMARK  109  A    between atoms: _269  and  _272
REMARK  110  A    between atoms: _272  and  _273
REMARK  111  A    between atoms: _278  and  _280
REMARK  112  A    between atoms: _280  and  _281
REMARK  113  A    between atoms: _280  and  _283
REMARK  114  A    between atoms: _283  and  _284
REMARK  115  A    between atoms: _284  and  _285
REMARK  116  A    between atoms: _285  and  _286
REMARK  117  A    between atoms: _295  and  _297
REMARK  118  A    between atoms: _297  and  _298
REMARK  119  A    between atoms: _297  and  _300
REMARK  120  A    between atoms: _300  and  _301
REMARK  121  A    between atoms: _304  and  _306
REMARK  122  A    between atoms: _306  and  _307
REMARK  123  A    between atoms: _306  and  _309
REMARK  124  A    between atoms: _309  and  _310
REMARK  125  A    between atoms: _313  and  _315
REMARK  126  A    between atoms: _315  and  _316
REMARK  127  A    between atoms: _315  and  _318
REMARK  128  A    between atoms: _318  and  _319
REMARK  129  A    between atoms: _322  and  _324
REMARK  130  A    between atoms: _324  and  _325
REMARK  131  A    between atoms: _324  and  _327
REMARK  132  A    between atoms: _327  and  _328
REMARK  133  A    between atoms: _331  and  _333
REMARK  134  A    between atoms: _333  and  _334
REMARK  135  A    between atoms: _336  and  _338
REMARK  136  A    between atoms: _338  and  _339
REMARK  137  A    between atoms: _342  and  _344
REMARK  138  A    between atoms: _344  and  _345
REMARK  139  A    between atoms: _344  and  _347
REMARK  140  A    between atoms: _347  and  _348
REMARK  141  A    between atoms: _351  and  _353
REMARK  142  A    between atoms: _353  and  _354
REMARK  143  A    between atoms: _353  and  _356
REMARK  144  A    between atoms: _356  and  _357
REMARK  145  A    between atoms: _360  and  _362
REMARK  146  A    between atoms: _362  and  _363
REMARK  147  A    between atoms: _362  and  _365
REMARK  148  A    between atoms: _365  and  _366
REMARK  149  A    between atoms: _369  and  _371
REMARK  150  A    between atoms: _371  and  _372
REMARK  151  A    between atoms: _371  and  _374
REMARK  152  A    between atoms: _377  and  _379
REMARK  153  A    between atoms: _379  and  _380
REMARK  154  A    between atoms: _379  and  _382
REMARK  155  A    between atoms: _382  and  _383
REMARK  156  A    between atoms: _383  and  _384
REMARK  157  A    between atoms: _384  and  _385
REMARK  158  A    between atoms: _385  and  _386
REMARK  159  A    between atoms: _390  and  _392
REMARK  160  A    between atoms: _392  and  _393
REMARK  161  A    between atoms: _392  and  _395
REMARK  162  A    between atoms: _395  and  _396
REMARK  163  A    between atoms: _396  and  _397
REMARK  164  A    between atoms: _399  and  _401
REMARK  165  A    between atoms: _401  and  _402
REMARK  166  A    between atoms: _401  and  _404
REMARK  167  A    between atoms: _404  and  _405
REMARK  168  A    between atoms: _408  and  _410
REMARK  169  A    between atoms: _410  and  _411
REMARK  170  A    between atoms: _413  and  _415
REMARK  171  A    between atoms: _415  and  _416
REMARK  172  A    between atoms: _418  and  _420
REMARK  173  A    between atoms: _420  and  _421
REMARK  174  A    between atoms: _420  and  _423
REMARK  175  A    between atoms: _423  and  _424
REMARK  176  A    between atoms: _427  and  _429
REMARK  177  A    between atoms: _429  and  _430
REMARK  178  A    between atoms: _432  and  _434
REMARK  179  A    between atoms: _434  and  _435
REMARK  180  A    between atoms: _437  and  _439
REMARK  181  A    between atoms: _439  and  _440
REMARK  182  A    between atoms: _439  and  _442
REMARK  183  A    between atoms: _442  and  _443
REMARK  184  A    between atoms: _449  and  _451
REMARK  185  A    between atoms: _451  and  _452
REMARK  186  A    between atoms: _451  and  _454
REMARK  187  A    between atoms: _454  and  _455
REMARK  188  A    between atoms: _458  and  _460
REMARK  189  A    between atoms: _460  and  _461
REMARK  190  A    between atoms: _460  and  _463
REMARK  191  A    between atoms: _466  and  _468
REMARK  192  A    between atoms: _468  and  _469
REMARK  193  A    between atoms: _468  and  _471
REMARK  194  A    between atoms: _471  and  _472
REMARK  195  A    between atoms: _476  and  _477
REMARK  196  A    between atoms: _482  and  _484
REMARK  197  A    between atoms: _484  and  _485
REMARK  198  A    between atoms: _484  and  _487
REMARK  199  A    between atoms: _487  and  _488
REMARK  200  A    between atoms: _492  and  _493
REMARK  201  A    between atoms: _498  and  _500
REMARK  202  A    between atoms: _500  and  _501
REMARK  203  A    between atoms: _500  and  _503
REMARK  204  A    between atoms: _506  and  _508
REMARK  205  A    between atoms: _508  and  _509
REMARK  206  A    between atoms: _508  and  _511
REMARK  207  A    between atoms: _511  and  _512
REMARK  208  A    between atoms: _517  and  _519
REMARK  209  A    between atoms: _519  and  _520
REMARK  210  A    between atoms: _519  and  _522
REMARK  211  A    between atoms: _522  and  _523
REMARK  212  A    between atoms: _526  and  _528
REMARK  213  A    between atoms: _528  and  _529
REMARK  214  A    between atoms: _528  and  _531
REMARK  215  A    between atoms: _531  and  _532
REMARK  216  A    between atoms: _535  and  _537
REMARK  217  A    between atoms: _537  and  _538
REMARK  218  A    between atoms: _540  and  _542
REMARK  219  A    between atoms: _542  and  _543
REMARK  220  A    between atoms: _542  and  _545
REMARK  221  A    between atoms: _545  and  _546
REMARK  222  A    between atoms: _546  and  _547
REMARK  223  A    between atoms: _547  and  _548
REMARK  224  A    between atoms: _557  and  _559
REMARK  225  A    between atoms: _559  and  _560
REMARK  226  A    between atoms: _559  and  _562
REMARK  227  A    between atoms: _562  and  _563
REMARK                            x       y       z     vdW  Elec       q    Type
REMARK                         _______ _______ _______ _____ _____    ______ ____
ROOT
ATOM      1  C   GLY A   5      20.553  24.932  15.785  0.00  0.00    +0.243 C 
ATOM      2  N   ALA A   6      21.866  24.950  16.030  0.00  0.00    -0.297 N 
ATOM      3  H   ALA A   6      22.187  24.935  17.019  0.00  0.00    +0.150 HD
ATOM      4  O   GLY A   5      20.101  25.009  14.662  0.00  0.00    -0.273 OA
ENDROOT
BRANCH   2   5
ATOM      5  CA  ALA A   6      22.868  24.989  14.976  0.00  0.00    +0.149 C 
ATOM      6  CB  ALA A   6      23.945  26.046  15.306  0.00  0.00    +0.031 C 
BRANCH   5   7
ATOM      7  C   ALA A   6      23.513  23.616  14.775  0.00  0.00    +0.241 C 
ATOM      8  O   ALA A   6      24.032  23.035  15.721  0.00  0.00    -0.273 OA
ATOM      9  N   ASP A   7      23.489  23.094  13.555  0.00  0.00    -0.297 N 
ATOM     10  H   ASP A   7      22.990  23.598  12.795  0.00  0.00    +0.150 HD
BRANCH   9  11
ATOM     11  CA  ASP A   7      24.152  21.821  13.258  0.00  0.00    +0.160 C 
BRANCH  11  12
ATOM     12  C   ASP A   7      25.650  21.993  13.431  0.00  0.00    +0.241 C 
ATOM     13  O   ASP A   7      26.344  21.092  13.904  0.00  0.00    -0.273 OA
ATOM     14  N   ASP A   8      26.116  23.155  12.985  0.00  0.00    -0.297 N 
ATOM     15  H   ASP A   8      25.433  23.887  12.703  0.00  0.00    +0.150 HD
BRANCH  14  16
ATOM     16  CA  ASP A   8      27.521  23.448  12.874  0.00  0.00    +0.160 C 
BRANCH  16  17
ATOM     17  C   ASP A   8      27.950  24.649  13.707  0.00  0.00    +0.241 C 
ATOM     18  O   ASP A   8      27.152  25.481  14.114  0.00  0.00    -0.273 OA
ATOM     19  N   THR A   9      29.248  24.680  13.968  0.00  0.00    -0.295 N 
ATOM     20  H   THR A   9      29.838  23.902  13.609  0.00  0.00    +0.150 HD
BRANCH  19  21
ATOM     21  CA  THR A   9      29.899  25.738  14.727  0.00  0.00    +0.176 C 
BRANCH  21  22
ATOM     22  C   THR A   9      30.380  26.789  13.742  0.00  0.00    +0.243 C 
ATOM     23  N   VAL A  10      29.980  28.027  14.006  0.00  0.00    -0.298 N 
ATOM     24  H   VAL A  10      29.432  28.200  14.873  0.00  0.00    +0.150 HD
ATOM     25  O   THR A   9      31.069  26.477  12.780  0.00  0.00    -0.273 OA
BRANCH  23  26
ATOM     26  CA  VAL A  10      30.276  29.153  13.132  0.00  0.00    +0.137 C 
BRANCH  26  27
ATOM     27  CB  VAL A  10      29.008  29.641  12.387  0.00  0.00    +0.026 C 
ATOM     28  CG2 VAL A  10      28.266  28.463  11.724  0.00  0.00    +0.002 C 
ATOM     29  CG1 VAL A  10      29.426  30.681  11.359  0.00  0.00    +0.002 C 
ENDBRANCH  26  27
BRANCH  26  30
ATOM     30  C   VAL A  10      30.837  30.286  13.982  0.00  0.00    +0.227 C 
ATOM     31  O   VAL A  10      30.168  30.782  14.897  0.00  0.00    -0.286 OA
ENDBRANCH  26  30
ENDBRANCH  23  26
ENDBRANCH  21  22
BRANCH  21  32
ATOM     32  CB  THR A   9      31.082  25.150  15.523  0.00  0.00    +0.137 C 
ATOM     33  CG2 THR A   9      31.935  26.222  16.164  0.00  0.00    +0.034 C 
BRANCH  32  34
ATOM     34  OG1 THR A   9      30.561  24.265  16.519  0.00  0.00    -0.382 OA
ATOM     35  HG1 THR A   9      30.053  23.538  16.079  0.00  0.00    +0.210 HD
ENDBRANCH  32  34
ENDBRANCH  21  32
ENDBRANCH  19  21
ENDBRANCH  16  17
BRANCH  16  36
ATOM     36  CB  ASP A   8      27.875  23.686  11.410  0.00  0.00    +0.143 C 
BRANCH  36  37
ATOM     37  CG  ASP A   8      27.515  22.498  10.522  0.00  0.00    +0.367 C 
ATOM     38  OD2 ASP A   8      27.865  21.341  10.862  0.00  0.00    -0.246 OA
ATOM     39  OD1 ASP A   8      26.864  22.735   9.496  0.00  0.00    -0.246 OA
ENDBRANCH  36  37
ENDBRANCH  16  36
ENDBRANCH  14  16
ENDBRANCH  11  12
BRANCH  11  40
ATOM     40  CB  ASP A   7      23.943  21.386  11.817  0.00  0.00    +0.143 C 
BRANCH  40  41
ATOM     41  CG  ASP A   7      22.502  21.022  11.492  0.00  0.00    +0.367 C 
ATOM     42  OD2 ASP A   7      21.644  20.922  12.390  0.00  0.00    -0.246 OA
ATOM     43  OD1 ASP A   7      22.252  20.838  10.289  0.00  0.00    -0.246 OA
ENDBRANCH  40  41
ENDBRANCH  11  40
ENDBRANCH   9  11
ENDBRANCH   5   7
ENDBRANCH   2   5
BRANCH   1  44
ATOM     44  CA  GLY A   5      19.616  24.880  16.976  0.00  0.00    +0.176 C 
BRANCH  44  46
ATOM     45  C   THR A   4      20.742  23.573  18.720  0.00  0.00    +0.243 C 
ATOM     46  N   GLY A   5      20.298  24.736  18.249  0.00  0.00    -0.295 N 
ATOM     47  H   GLY A   5      20.448  25.589  18.825  0.00  0.00    +0.150 HD
ATOM     48  O   THR A   4      20.588  22.503  18.128  0.00  0.00    -0.273 OA
BRANCH  45  49
ATOM     49  CA  THR A   4      21.499  23.597  20.061  0.00  0.00    +0.176 C 
BRANCH  49  51
ATOM     50  C   ASP A   3      22.979  25.477  19.749  0.00  0.00    +0.241 C 
ATOM     51  N   THR A   4      22.019  24.901  20.460  0.00  0.00    -0.295 N 
ATOM     52  H   THR A   4      21.637  25.378  21.301  0.00  0.00    +0.150 HD
ATOM     53  O   ASP A   3      23.407  24.971  18.704  0.00  0.00    -0.273 OA
BRANCH  50  54
ATOM     54  CA  ASP A   3      23.495  26.815  20.271  0.00  0.00    +0.160 C 
BRANCH  54  57
ATOM     55  C   LEU A   2      24.648  27.229  22.367  0.00  0.00    +0.241 C 
ATOM     56  O   LEU A   2      23.650  27.691  22.895  0.00  0.00    -0.273 OA
ATOM     57  N   ASP A   3      24.624  26.638  21.177  0.00  0.00    -0.297 N 
ATOM     58  H   ASP A   3      25.424  26.039  20.887  0.00  0.00    +0.150 HD
BRANCH  55  59
ATOM     59  CA  LEU A   2      25.992  27.291  23.083  0.00  0.00    +0.149 C 
BRANCH  59  61
ATOM     60  C   LEU A   1      26.759  29.412  22.171  0.00  0.00    +0.238 C 
ATOM     61  N   LEU A   2      26.382  28.687  23.221  0.00  0.00    -0.297 N 
ATOM     62  H   LEU A   2      26.365  29.128  24.163  0.00  0.00    +0.150 HD
ATOM     63  O   LEU A   1      26.935  28.916  21.050  0.00  0.00    -0.274 OA
BRANCH  60  64
ATOM     64  CA  LEU A   1      26.956  30.913  22.395  0.00  0.00    +0.145 C 
BRANCH  64  65
ATOM     65  N   LEU A   1      28.282  31.340  21.975  0.00  0.00    -0.238 NA
ATOM     66  H   LEU A   1      28.439  31.564  20.972  0.00  0.00    +0.142 HD
ENDBRANCH  64  65
BRANCH  64  67
ATOM     67  CB  LEU A   1      25.930  31.688  21.561  0.00  0.00    +0.026 C 
BRANCH  67  68
ATOM     68  CG  LEU A   1      24.442  31.461  21.795  0.00  0.00    +0.002 C 
ATOM     69  CD2 LEU A   1      24.045  32.066  23.126  0.00  0.00    +0.000 C 
ATOM     70  CD1 LEU A   1      23.645  32.067  20.639  0.00  0.00    +0.000 C 
ENDBRANCH  67  68
ENDBRANCH  64  67
ENDBRANCH  60  64
ENDBRANCH  59  61
BRANCH  59  71
ATOM     71  CB  LEU A   2      25.929  26.601  24.454  0.00  0.00    +0.029 C 
BRANCH  71  72
ATOM     72  CG  LEU A   2      27.208  26.674  25.297  0.00  0.00    +0.002 C 
ATOM     73  CD2 LEU A   2      27.030  25.926  26.607  0.00  0.00    +0.000 C 
ATOM     74  CD1 LEU A   2      28.407  26.096  24.543  0.00  0.00    +0.000 C 
ENDBRANCH  71  72
ENDBRANCH  59  71
ENDBRANCH  55  59
ENDBRANCH  54  57
BRANCH  54  75
ATOM     75  CB  ASP A   3      23.939  27.750  19.136  0.00  0.00    +0.143 C 
BRANCH  75  76
ATOM     76  CG  ASP A   3      22.813  28.117  18.187  0.00  0.00    +0.367 C 
ATOM     77  OD2 ASP A   3      21.695  27.562  18.291  0.00  0.00    -0.246 OA
ATOM     78  OD1 ASP A   3      23.091  28.947  17.322  0.00  0.00    -0.246 OA
ENDBRANCH  75  76
ENDBRANCH  54  75
ENDBRANCH  50  54
ENDBRANCH  49  51
BRANCH  49  79
ATOM     79  CB  THR A   4      20.616  22.995  21.155  0.00  0.00    +0.137 C 
ATOM     80  CG2 THR A   4      21.459  22.751  22.408  0.00  0.00    +0.034 C 
BRANCH  79  81
ATOM     81  OG1 THR A   4      19.515  23.867  21.438  0.00  0.00    -0.382 OA
ATOM     82  HG1 THR A   4      18.975  23.992  20.618  0.00  0.00    +0.210 HD
ENDBRANCH  79  81
ENDBRANCH  49  79
ENDBRANCH  45  49
ENDBRANCH  44  46
ENDBRANCH   1  44
TORSDOF 35
REMARK  Name = ../refined-set-2016/4djo/4djo_pocket.pdb
REMARK  227 active torsions:
REMARK  status: ('A' for Active; 'I' for Inactive)
REMARK    1  A    between atoms: _1  and  _3
REMARK    2  A    between atoms: _3  and  _4
REMARK    3  A    between atoms: _3  and  _6
REMARK    4  A    between atoms: _6  and  _7
REMARK    5  A    between atoms: _7  and  _8
REMARK    6  A    between atoms: _8  and  _9
REMARK    7  A    between atoms: _18  and  _20
REMARK    8  A    between atoms: _20  and  _21
REMARK    9  A    between atoms: _20  and  _23
REMARK   10  A    between atoms: _23  and  _24
REMARK   11  A    between atoms: _27  and  _29
REMARK   12  A    between atoms: _29  and  _30
REMARK   13  A    between atoms: _29  and  _32
REMARK   14  A    between atoms: _32  and  _33
REMARK   15  A    between atoms: _36  and  _38
REMARK   16  A    between atoms: _38  and  _39
REMARK   17  A    between atoms: _38  and  _41
REMARK   18  A    between atoms: _41  and  _42
REMARK   19  A    between atoms: _45  and  _47
REMARK   20  A    between atoms: _47  and  _48
REMARK   21  A    between atoms: _47  and  _50
REMARK   22  A    between atoms: _50  and  _51
REMARK   23  A    between atoms: _54  and  _56
REMARK   24  A    between atoms: _56  and  _57
REMARK   25  A    between atoms: _59  and  _61
REMARK   26  A    between atoms: _61  and  _62
REMARK   27  A    between atoms: _65  and  _67
REMARK   28  A    between atoms: _67  and  _68
REMARK   29  A    between atoms: _67  and  _70
REMARK   30  A    between atoms: _70  and  _71
REMARK   31  A    between atoms: _74  and  _76
REMARK   32  A    between atoms: _76  and  _77
REMARK   33  A    between atoms: _76  and  _79
REMARK   34  A    between atoms: _79  and  _80
REMARK   35  A    between atoms: _83  and  _85
REMARK   36  A    between atoms: _85  and  _86
REMARK   37  A    between atoms: _85  and  _88
REMARK   38  A    between atoms: _88  and  _89
REMARK   39  A    between atoms: _92  and  _94
REMARK   40  A    between atoms: _94  and  _95
REMARK   41  A    between atoms: _94  and  _97
REMARK   42  A    between atoms: _100  and  _102
REMARK   43  A    between atoms: _102  and  _103
REMARK   44  A    between atoms: _102  and  _105
REMARK   45  A    between atoms: _105  and  _106
REMARK   46  A    between atoms: _106  and  _107
REMARK   47  A    between atoms: _109  and  _111
REMARK   48  A    between atoms: _111  and  _112
REMARK   49  A    between atoms: _111  and  _114
REMARK   50  A    between atoms: _114  and  _115
REMARK   51  A    between atoms: _118  and  _120
REMARK   52  A    between atoms: _120  and  _121
REMARK   53  A    between atoms: _123  and  _125
REMARK   54  A    between atoms: _125  and  _126
REMARK   55  A    between atoms: _128  and  _130
REMARK   56  A    between atoms: _130  and  _131
REMARK   57  A    between atoms: _130  and  _133
REMARK   58  A    between atoms: _133  and  _134
REMARK   59  A    between atoms: _137  and  _139
REMARK   60  A    between atoms: _139  and  _140
REMARK   61  A    between atoms: _142  and  _144
REMARK   62  A    between atoms: _144  and  _145
REMARK   63  A    between atoms: _147  and  _149
REMARK   64  A    between atoms: _149  and  _150
REMARK   65  A    between atoms: _149  and  _152
REMARK   66  A    between atoms: _152  and  _153
REMARK   67  A    between atoms: _159  and  _161
REMARK   68  A    between atoms: _161  and  _162
REMARK   69  A    between atoms: _161  and  _164
REMARK   70  A    between atoms: _164  and  _165
REMARK   71  A    between atoms: _168  and  _170
REMARK   72  A    between atoms: _170  and  _171
REMARK   73  A    between atoms: _170  and  _173
REMARK   74  A    between atoms: _176  and  _178
REMARK   75  A    between atoms: _178  and  _179
REMARK   76  A    between atoms: _178  and  _181
REMARK   77  A    between atoms: _181  and  _182
REMARK   78  A    between atoms: _186  and  _187
REMARK   79  A    between atoms: _192  and  _194
REMARK   80  A    between atoms: _194  and  _195
REMARK   81  A    between atoms: _194  and  _197
REMARK   82  A    between atoms: _197  and  _198
REMARK   83  A    between atoms: _202  and  _203
REMARK   84  A    between atoms: _208  and  _210
REMARK   85  A    between atoms: _210  and  _211
REMARK   86  A    between atoms: _210  and  _213
REMARK   87  A    between atoms: _216  and  _218
REMARK   88  A    between atoms: _218  and  _219
REMARK   89  A    between atoms: _218  and  _221
REMARK   90  A    between atoms: _221  and  _222
REMARK   91  A    between atoms: _227  and  _229
REMARK   92  A    between atoms: _229  and  _230
REMARK   93  A    between atoms: _229  and  _232
REMARK   94  A    between atoms: _232  and  _233
REMARK   95  A    between atoms: _236  and  _238
REMARK   96  A    between atoms: _238  and  _239
REMARK   97  A    between atoms: _238  and  _241
REMARK   98  A    between atoms: _241  and  _242
REMARK   99  A    between atoms: _245  and  _247
REMARK  100  A    between atoms: _247  and  _248
REMARK  101  A    between atoms: _250  and  _252
REMARK  102  A    between atoms: _252  and  _253
REMARK  103  A    between atoms: _252  and  _255
REMARK  104  A    between atoms: _255  and  _256
REMARK  105  A    between atoms: _256  and  _257
REMARK  106  A    between atoms: _257  and  _258
REMARK  107  A    between atoms: _267  and  _269
REMARK  108  A    between atoms: _269  and  _270
REMARK  109  A    between atoms: _269  and  _272
REMARK  110  A    between atoms: _272  and  _273
REMARK  111  A    between atoms: _278  and  _280
REMARK  112  A    between atoms: _280  and  _281
REMARK  113  A    between atoms: _280  and  _283
REMARK  114  A    between atoms: _283  and  _284
REMARK  115  A    between atoms: _284  and  _285
REMARK  116  A    between atoms: _285  and  _286
REMARK  117  A    between atoms: _295  and  _297
REMARK  118  A    between atoms: _297  and  _298
REMARK  119  A    between atoms: _297  and  _300
REMARK  120  A    between atoms: _300  and  _301
REMARK  121  A    between atoms: _304  and  _306
REMARK  122  A    between atoms: _306  and  _307
REMARK  123  A    between atoms: _306  and  _309
REMARK  124  A    between atoms: _309  and  _310
REMARK  125  A    between atoms: _313  and  _315
REMARK  126  A    between atoms: _315  and  _316
REMARK  127  A    between atoms: _315  and  _318
REMARK  128  A    between atoms: _318  and  _319
REMARK  129  A    between atoms: _322  and  _324
REMARK  130  A    between atoms: _324  and  _325
REMARK  131  A    between atoms: _324  and  _327
REMARK  132  A    between atoms: _327  and  _328
REMARK  133  A    between atoms: _331  and  _333
REMARK  134  A    between atoms: _333  and  _334
REMARK  135  A    between atoms: _336  and  _338
REMARK  136  A    between atoms: _338  and  _339
REMARK  137  A    between atoms: _342  and  _344
REMARK  138  A    between atoms: _344  and  _345
REMARK  139  A    between atoms: _344  and  _347
REMARK  140  A    between atoms: _347  and  _348
REMARK  141  A    between atoms: _351  and  _353
REMARK  142  A    between atoms: _353  and  _354
REMARK  143  A    between atoms: _353  and  _356
REMARK  144  A    between atoms: _356  and  _357
REMARK  145  A    between atoms: _360  and  _362
REMARK  146  A    between atoms: _362  and  _363
REMARK  147  A    between atoms: _362  and  _365
REMARK  148  A    between atoms: _365  and  _366
REMARK  149  A    between atoms: _369  and  _371
REMARK  150  A    between atoms: _371  and  _372
REMARK  151  A    between atoms: _371  and  _374
REMARK  152  A    between atoms: _377  and  _379
REMARK  153  A    between atoms: _379  and  _380
REMARK  154  A    between atoms: _379  and  _382
REMARK  155  A    between atoms: _382  and  _383
REMARK  156  A    between atoms: _383  and  _384
REMARK  157  A    between atoms: _384  and  _385
REMARK  158  A    between atoms: _385  and  _386
REMARK  159  A    between atoms: _390  and  _392
REMARK  160  A    between atoms: _392  and  _393
REMARK  161  A    between atoms: _392  and  _395
REMARK  162  A    between atoms: _395  and  _396
REMARK  163  A    between atoms: _396  and  _397
REMARK  164  A    between atoms: _399  and  _401
REMARK  165  A    between atoms: _401  and  _402
REMARK  166  A    between atoms: _401  and  _404
REMARK  167  A    between atoms: _404  and  _405
REMARK  168  A    between atoms: _408  and  _410
REMARK  169  A    between atoms: _410  and  _411
REMARK  170  A    between atoms: _413  and  _415
REMARK  171  A    between atoms: _415  and  _416
REMARK  172  A    between atoms: _418  and  _420
REMARK  173  A    between atoms: _420  and  _421
REMARK  174  A    between atoms: _420  and  _423
REMARK  175  A    between atoms: _423  and  _424
REMARK  176  A    between atoms: _427  and  _429
REMARK  177  A    between atoms: _429  and  _430
REMARK  178  A    between atoms: _432  and  _434
REMARK  179  A    between atoms: _434  and  _435
REMARK  180  A    between atoms: _437  and  _439
REMARK  181  A    between atoms: _439  and  _440
REMARK  182  A    between atoms: _439  and  _442
REMARK  183  A    between atoms: _442  and  _443
REMARK  184  A    between atoms: _449  and  _451
REMARK  185  A    between atoms: _451  and  _452
REMARK  186  A    between atoms: _451  and  _454
REMARK  187  A    between atoms: _454  and  _455
REMARK  188  A    between atoms: _458  and  _460
REMARK  189  A    between atoms: _460  and  _461
REMARK  190  A    between atoms: _460  and  _463
REMARK  191  A    between atoms: _466  and  _468
REMARK  192  A    between atoms: _468  and  _469
REMARK  193  A    between atoms: _468  and  _471
REMARK  194  A    between atoms: _471  and  _472
REMARK  195  A    between atoms: _476  and  _477
REMARK  196  A    between atoms: _482  and  _484
REMARK  197  A    between atoms: _484  and  _485
REMARK  198  A    between atoms: _484  and  _487
REMARK  199  A    between atoms: _487  and  _488
REMARK  200  A    between atoms: _492  and  _493
REMARK  201  A    between atoms: _498  and  _500
REMARK  202  A    between atoms: _500  and  _501
REMARK  203  A    between atoms: _500  and  _503
REMARK  204  A    between atoms: _506  and  _508
REMARK  205  A    between atoms: _508  and  _509
REMARK  206  A    between atoms: _508  and  _511
REMARK  207  A    between atoms: _511  and  _512
REMARK  208  A    between atoms: _517  and  _519
REMARK  209  A    between atoms: _519  and  _520
REMARK  210  A    between atoms: _519  and  _522
REMARK  211  A    between atoms: _522  and  _523
REMARK  212  A    between atoms: _526  and  _528
REMARK  213  A    between atoms: _528  and  _529
REMARK  214  A    between atoms: _528  and  _531
REMARK  215  A    between atoms: _531  and  _532
REMARK  216  A    between atoms: _535  and  _537
REMARK  217  A    between atoms: _537  and  _538
REMARK  218  A    between atoms: _540  and  _542
REMARK  219  A    between atoms: _542  and  _543
REMARK  220  A    between atoms: _542  and  _545
REMARK  221  A    between atoms: _545  and  _546
REMARK  222  A    between atoms: _546  and  _547
REMARK  223  A    between atoms: _547  and  _548
REMARK  224  A    between atoms: _557  and  _559
REMARK  225  A    between atoms: _559  and  _560
REMARK  226  A    between atoms: _559  and  _562
REMARK  227  A    between atoms: _562  and  _563
REMARK                            x       y       z     vdW  Elec       q    Type
REMARK                         _______ _______ _______ _____ _____    ______ ____
ROOT
ATOM      1  CA  ILE A   5      17.167  32.074   9.535  0.00  0.00    +0.149 C 
ENDROOT
BRANCH   1   3
ATOM      2  C   GLY A   4      19.038  30.894   8.597  0.00  0.00    +0.243 C 
ATOM      3  N   ILE A   5      18.557  31.668   9.560  0.00  0.00    -0.297 N 
ATOM      4  H   ILE A   5      19.177  31.983  10.333  0.00  0.00    +0.150 HD
ATOM      5  O   GLY A   4      18.409  30.660   7.550  0.00  0.00    -0.273 OA
BRANCH   2   6
ATOM      6  CA  GLY A   4      20.417  30.315   8.837  0.00  0.00    +0.176 C 
BRANCH   6   9
ATOM      7  C   GLY A   3      21.833  28.913   7.443  0.00  0.00    +0.243 C 
ATOM      8  O   GLY A   3      22.289  28.266   8.400  0.00  0.00    -0.273 OA
ATOM      9  N   GLY A   4      21.000  29.934   7.571  0.00  0.00    -0.295 N 
ATOM     10  H   GLY A   4      20.755  30.485   6.724  0.00  0.00    +0.150 HD
BRANCH   7  11
ATOM     11  CA  GLY A   3      22.198  28.598   6.006  0.00  0.00    +0.176 C 
BRANCH  11  13
ATOM     12  C   ILE A   2      24.575  28.558   5.468  0.00  0.00    +0.241 C 
ATOM     13  N   GLY A   3      23.464  27.932   5.851  0.00  0.00    -0.295 N 
ATOM     14  H   GLY A   3      23.514  26.912   6.048  0.00  0.00    +0.150 HD
ATOM     15  O   ILE A   2      24.628  29.772   5.252  0.00  0.00    -0.273 OA
BRANCH  12  16
ATOM     16  CA  ILE A   2      25.810  27.667   5.304  0.00  0.00    +0.148 C 
BRANCH  16  18
ATOM     17  C   MET A   1      27.229  27.336   3.343  0.00  0.00    +0.238 C 
ATOM     18  N   ILE A   2      26.641  28.161   4.207  0.00  0.00    -0.297 N 
ATOM     19  H   ILE A   2      26.777  29.186   4.098  0.00  0.00    +0.150 HD
ATOM     20  O   MET A   1      27.120  26.103   3.394  0.00  0.00    -0.274 OA
BRANCH  17  21
ATOM     21  CA  MET A   1      28.080  27.985   2.267  0.00  0.00    +0.146 C 
BRANCH  21  22
ATOM     22  N   MET A   1      29.216  27.135   1.941  0.00  0.00    -0.238 NA
ATOM     23  H   MET A   1      29.049  26.155   1.634  0.00  0.00    +0.142 HD
ENDBRANCH  21  22
BRANCH  21  24
ATOM     24  CB  MET A   1      27.232  28.280   1.034  0.00  0.00    +0.038 C 
BRANCH  24  25
ATOM     25  CG  MET A   1      27.980  29.113   0.015  0.00  0.00    +0.060 C 
BRANCH  25  26
ATOM     26  SD  MET A   1      27.011  29.492  -1.444  0.00  0.00    -0.139 S 
ATOM     27  CE  MET A   1      25.675  30.416  -0.695  0.00  0.00    +0.069 C 
ENDBRANCH  25  26
ENDBRANCH  24  25
ENDBRANCH  21  24
ENDBRANCH  17  21
ENDBRANCH  16  18
BRANCH  16  28
ATOM     28  CB  ILE A   2      26.614  27.588   6.627  0.00  0.00    +0.027 C 
ATOM     29  CG2 ILE A   2      26.844  28.978   7.219  0.00  0.00    +0.002 C 
BRANCH  28  30
ATOM     30  CG1 ILE A   2      25.906  26.703   7.662  0.00  0.00    +0.002 C 
ATOM     31  CD1 ILE A   2      26.089  25.227   7.424  0.00  0.00    +0.000 C 
ENDBRANCH  28  30
ENDBRANCH  16  28
ENDBRANCH  12  16
ENDBRANCH  11  13
ENDBRANCH   7  11
ENDBRANCH   6   9
ENDBRANCH   2   6
ENDBRANCH   1   3
BRANCH   1  32
ATOM     32  C   ILE A   5      16.913  33.082   8.435  0.00  0.00    +0.241 C 
ATOM     33  N   GLY A   6      17.932  33.874   8.103  0.00  0.00    -0.295 N 
ATOM     34  H   GLY A   6      18.853  33.738   8.567  0.00  0.00    +0.150 HD
ATOM     35  O   ILE A   5      15.810  33.118   7.881  0.00  0.00    -0.273 OA
BRANCH  33  36
ATOM     36  CA  GLY A   6      17.786  34.935   7.097  0.00  0.00    +0.176 C 
BRANCH  36  37
ATOM     37  C   GLY A   6      18.318  34.652   5.699  0.00  0.00    +0.243 C 
ATOM     38  N   GLY A   7      18.779  33.425   5.448  0.00  0.00    -0.295 N 
ATOM     39  H   GLY A   7      18.698  32.690   6.179  0.00  0.00    +0.150 HD
ATOM     40  O   GLY A   6      18.307  35.546   4.844  0.00  0.00    -0.273 OA
BRANCH  38  41
ATOM     41  CA  GLY A   7      19.396  33.095   4.165  0.00  0.00    +0.176 C 
BRANCH  41  42
ATOM     42  C   GLY A   7      20.726  32.400   4.333  0.00  0.00    +0.243 C 
ATOM     43  O   GLY A   7      20.964  31.734   5.328  0.00  0.00    -0.273 OA
ATOM     44  N   PHE A   8      21.589  32.542   3.339  0.00  0.00    -0.297 N 
ATOM     45  H   PHE A   8      21.349  33.182   2.555  0.00  0.00    +0.150 HD
BRANCH  44  46
ATOM     46  CA  PHE A   8      22.860  31.836   3.304  0.00  0.00    +0.153 C 
BRANCH  46  47
ATOM     47  C   PHE A   8      24.021  32.793   3.351  0.00  0.00    +0.241 C 
ATOM     48  N   ILE A   9      25.125  32.321   3.918  0.00  0.00    -0.298 N 
ATOM     49  H   ILE A   9      25.097  31.387   4.374  0.00  0.00    +0.150 HD
ATOM     50  O   PHE A   8      23.919  33.925   2.877  0.00  0.00    -0.273 OA
BRANCH  48  51
ATOM     51  CA  ILE A   9      26.380  33.074   3.922  0.00  0.00    +0.137 C 
BRANCH  51  52
ATOM     52  CB  ILE A   9      26.746  33.619   5.349  0.00  0.00    +0.026 C 
ATOM     53  CG2 ILE A   9      25.658  34.603   5.869  0.00  0.00    +0.002 C 
BRANCH  52  54
ATOM     54  CG1 ILE A   9      26.965  32.462   6.335  0.00  0.00    +0.002 C 
ATOM     55  CD1 ILE A   9      27.574  32.892   7.714  0.00  0.00    +0.000 C 
ENDBRANCH  52  54
ENDBRANCH  51  52
BRANCH  51  56
ATOM     56  C   ILE A   9      27.517  32.197   3.393  0.00  0.00    +0.227 C 
ATOM     57  O   ILE A   9      27.455  30.970   3.424  0.00  0.00    -0.286 OA
ENDBRANCH  51  56
ENDBRANCH  48  51
ENDBRANCH  46  47
BRANCH  46  58
ATOM     58  CB  PHE A   8      22.948  31.000   2.025  0.00  0.00    +0.055 C 
BRANCH  58  59
ATOM     59  CG  PHE A   8      22.119  29.772   2.106  0.00  0.00    -0.020 A 
ATOM     60  CD2 PHE A   8      22.711  28.551   2.390  0.00  0.00    -0.004 A 
ATOM     61  CE2 PHE A   8      21.931  27.413   2.509  0.00  0.00    -0.000 A 
ATOM     62  CZ  PHE A   8      20.562  27.511   2.379  0.00  0.00    -0.000 A 
ATOM     63  CE1 PHE A   8      19.963  28.726   2.127  0.00  0.00    -0.000 A 
ATOM     64  CD1 PHE A   8      20.742  29.853   1.999  0.00  0.00    -0.004 A 
ENDBRANCH  58  59
ENDBRANCH  46  58
ENDBRANCH  44  46
ENDBRANCH  41  42
ENDBRANCH  38  41
ENDBRANCH  36  37
ENDBRANCH  33  36
ENDBRANCH   1  32
BRANCH   1  65
ATOM     65  CB  ILE A   5      16.676  32.637  10.891  0.00  0.00    +0.027 C 
ATOM     66  CG2 ILE A   5      17.068  34.091  11.023  0.00  0.00    +0.002 C 
BRANCH  65  67
ATOM     67  CG1 ILE A   5      15.163  32.402  11.025  0.00  0.00    +0.002 C 
ATOM     68  CD1 ILE A   5      14.538  32.896  12.315  0.00  0.00    +0.000 C 
ENDBRANCH  65  67
ENDBRANCH   1  65
TORSDOF 29
REMARK  Name = ../refined-set-2016/4djo/4djo_pocket.pdb
REMARK  227 active torsions:
REMARK  status: ('A' for Active; 'I' for Inactive)
REMARK    1  A    between atoms: _1  and  _3
REMARK    2  A    between atoms: _3  and  _4
REMARK    3  A    between atoms: _3  and  _6
REMARK    4  A    between atoms: _6  and  _7
REMARK    5  A    between atoms: _7  and  _8
REMARK    6  A    between atoms: _8  and  _9
REMARK    7  A    between atoms: _18  and  _20
REMARK    8  A    between atoms: _20  and  _21
REMARK    9  A    between atoms: _20  and  _23
REMARK   10  A    between atoms: _23  and  _24
REMARK   11  A    between atoms: _27  and  _29
REMARK   12  A    between atoms: _29  and  _30
REMARK   13  A    between atoms: _29  and  _32
REMARK   14  A    between atoms: _32  and  _33
REMARK   15  A    between atoms: _36  and  _38
REMARK   16  A    between atoms: _38  and  _39
REMARK   17  A    between atoms: _38  and  _41
REMARK   18  A    between atoms: _41  and  _42
REMARK   19  A    between atoms: _45  and  _47
REMARK   20  A    between atoms: _47  and  _48
REMARK   21  A    between atoms: _47  and  _50
REMARK   22  A    between atoms: _50  and  _51
REMARK   23  A    between atoms: _54  and  _56
REMARK   24  A    between atoms: _56  and  _57
REMARK   25  A    between atoms: _59  and  _61
REMARK   26  A    between atoms: _61  and  _62
REMARK   27  A    between atoms: _65  and  _67
REMARK   28  A    between atoms: _67  and  _68
REMARK   29  A    between atoms: _67  and  _70
REMARK   30  A    between atoms: _70  and  _71
REMARK   31  A    between atoms: _74  and  _76
REMARK   32  A    between atoms: _76  and  _77
REMARK   33  A    between atoms: _76  and  _79
REMARK   34  A    between atoms: _79  and  _80
REMARK   35  A    between atoms: _83  and  _85
REMARK   36  A    between atoms: _85  and  _86
REMARK   37  A    between atoms: _85  and  _88
REMARK   38  A    between atoms: _88  and  _89
REMARK   39  A    between atoms: _92  and  _94
REMARK   40  A    between atoms: _94  and  _95
REMARK   41  A    between atoms: _94  and  _97
REMARK   42  A    between atoms: _100  and  _102
REMARK   43  A    between atoms: _102  and  _103
REMARK   44  A    between atoms: _102  and  _105
REMARK   45  A    between atoms: _105  and  _106
REMARK   46  A    between atoms: _106  and  _107
REMARK   47  A    between atoms: _109  and  _111
REMARK   48  A    between atoms: _111  and  _112
REMARK   49  A    between atoms: _111  and  _114
REMARK   50  A    between atoms: _114  and  _115
REMARK   51  A    between atoms: _118  and  _120
REMARK   52  A    between atoms: _120  and  _121
REMARK   53  A    between atoms: _123  and  _125
REMARK   54  A    between atoms: _125  and  _126
REMARK   55  A    between atoms: _128  and  _130
REMARK   56  A    between atoms: _130  and  _131
REMARK   57  A    between atoms: _130  and  _133
REMARK   58  A    between atoms: _133  and  _134
REMARK   59  A    between atoms: _137  and  _139
REMARK   60  A    between atoms: _139  and  _140
REMARK   61  A    between atoms: _142  and  _144
REMARK   62  A    between atoms: _144  and  _145
REMARK   63  A    between atoms: _147  and  _149
REMARK   64  A    between atoms: _149  and  _150
REMARK   65  A    between atoms: _149  and  _152
REMARK   66  A    between atoms: _152  and  _153
REMARK   67  A    between atoms: _159  and  _161
REMARK   68  A    between atoms: _161  and  _162
REMARK   69  A    between atoms: _161  and  _164
REMARK   70  A    between atoms: _164  and  _165
REMARK   71  A    between atoms: _168  and  _170
REMARK   72  A    between atoms: _170  and  _171
REMARK   73  A    between atoms: _170  and  _173
REMARK   74  A    between atoms: _176  and  _178
REMARK   75  A    between atoms: _178  and  _179
REMARK   76  A    between atoms: _178  and  _181
REMARK   77  A    between atoms: _181  and  _182
REMARK   78  A    between atoms: _186  and  _187
REMARK   79  A    between atoms: _192  and  _194
REMARK   80  A    between atoms: _194  and  _195
REMARK   81  A    between atoms: _194  and  _197
REMARK   82  A    between atoms: _197  and  _198
REMARK   83  A    between atoms: _202  and  _203
REMARK   84  A    between atoms: _208  and  _210
REMARK   85  A    between atoms: _210  and  _211
REMARK   86  A    between atoms: _210  and  _213
REMARK   87  A    between atoms: _216  and  _218
REMARK   88  A    between atoms: _218  and  _219
REMARK   89  A    between atoms: _218  and  _221
REMARK   90  A    between atoms: _221  and  _222
REMARK   91  A    between atoms: _227  and  _229
REMARK   92  A    between atoms: _229  and  _230
REMARK   93  A    between atoms: _229  and  _232
REMARK   94  A    between atoms: _232  and  _233
REMARK   95  A    between atoms: _236  and  _238
REMARK   96  A    between atoms: _238  and  _239
REMARK   97  A    between atoms: _238  and  _241
REMARK   98  A    between atoms: _241  and  _242
REMARK   99  A    between atoms: _245  and  _247
REMARK  100  A    between atoms: _247  and  _248
REMARK  101  A    between atoms: _250  and  _252
REMARK  102  A    between atoms: _252  and  _253
REMARK  103  A    between atoms: _252  and  _255
REMARK  104  A    between atoms: _255  and  _256
REMARK  105  A    between atoms: _256  and  _257
REMARK  106  A    between atoms: _257  and  _258
REMARK  107  A    between atoms: _267  and  _269
REMARK  108  A    between atoms: _269  and  _270
REMARK  109  A    between atoms: _269  and  _272
REMARK  110  A    between atoms: _272  and  _273
REMARK  111  A    between atoms: _278  and  _280
REMARK  112  A    between atoms: _280  and  _281
REMARK  113  A    between atoms: _280  and  _283
REMARK  114  A    between atoms: _283  and  _284
REMARK  115  A    between atoms: _284  and  _285
REMARK  116  A    between atoms: _285  and  _286
REMARK  117  A    between atoms: _295  and  _297
REMARK  118  A    between atoms: _297  and  _298
REMARK  119  A    between atoms: _297  and  _300
REMARK  120  A    between atoms: _300  and  _301
REMARK  121  A    between atoms: _304  and  _306
REMARK  122  A    between atoms: _306  and  _307
REMARK  123  A    between atoms: _306  and  _309
REMARK  124  A    between atoms: _309  and  _310
REMARK  125  A    between atoms: _313  and  _315
REMARK  126  A    between atoms: _315  and  _316
REMARK  127  A    between atoms: _315  and  _318
REMARK  128  A    between atoms: _318  and  _319
REMARK  129  A    between atoms: _322  and  _324
REMARK  130  A    between atoms: _324  and  _325
REMARK  131  A    between atoms: _324  and  _327
REMARK  132  A    between atoms: _327  and  _328
REMARK  133  A    between atoms: _331  and  _333
REMARK  134  A    between atoms: _333  and  _334
REMARK  135  A    between atoms: _336  and  _338
REMARK  136  A    between atoms: _338  and  _339
REMARK  137  A    between atoms: _342  and  _344
REMARK  138  A    between atoms: _344  and  _345
REMARK  139  A    between atoms: _344  and  _347
REMARK  140  A    between atoms: _347  and  _348
REMARK  141  A    between atoms: _351  and  _353
REMARK  142  A    between atoms: _353  and  _354
REMARK  143  A    between atoms: _353  and  _356
REMARK  144  A    between atoms: _356  and  _357
REMARK  145  A    between atoms: _360  and  _362
REMARK  146  A    between atoms: _362  and  _363
REMARK  147  A    between atoms: _362  and  _365
REMARK  148  A    between atoms: _365  and  _366
REMARK  149  A    between atoms: _369  and  _371
REMARK  150  A    between atoms: _371  and  _372
REMARK  151  A    between atoms: _371  and  _374
REMARK  152  A    between atoms: _377  and  _379
REMARK  153  A    between atoms: _379  and  _380
REMARK  154  A    between atoms: _379  and  _382
REMARK  155  A    between atoms: _382  and  _383
REMARK  156  A    between atoms: _383  and  _384
REMARK  157  A    between atoms: _384  and  _385
REMARK  158  A    between atoms: _385  and  _386
REMARK  159  A    between atoms: _390  and  _392
REMARK  160  A    between atoms: _392  and  _393
REMARK  161  A    between atoms: _392  and  _395
REMARK  162  A    between atoms: _395  and  _396
REMARK  163  A    between atoms: _396  and  _397
REMARK  164  A    between atoms: _399  and  _401
REMARK  165  A    between atoms: _401  and  _402
REMARK  166  A    between atoms: _401  and  _404
REMARK  167  A    between atoms: _404  and  _405
REMARK  168  A    between atoms: _408  and  _410
REMARK  169  A    between atoms: _410  and  _411
REMARK  170  A    between atoms: _413  and  _415
REMARK  171  A    between atoms: _415  and  _416
REMARK  172  A    between atoms: _418  and  _420
REMARK  173  A    between atoms: _420  and  _421
REMARK  174  A    between atoms: _420  and  _423
REMARK  175  A    between atoms: _423  and  _424
REMARK  176  A    between atoms: _427  and  _429
REMARK  177  A    between atoms: _429  and  _430
REMARK  178  A    between atoms: _432  and  _434
REMARK  179  A    between atoms: _434  and  _435
REMARK  180  A    between atoms: _437  and  _439
REMARK  181  A    between atoms: _439  and  _440
REMARK  182  A    between atoms: _439  and  _442
REMARK  183  A    between atoms: _442  and  _443
REMARK  184  A    between atoms: _449  and  _451
REMARK  185  A    between atoms: _451  and  _452
REMARK  186  A    between atoms: _451  and  _454
REMARK  187  A    between atoms: _454  and  _455
REMARK  188  A    between atoms: _458  and  _460
REMARK  189  A    between atoms: _460  and  _461
REMARK  190  A    between atoms: _460  and  _463
REMARK  191  A    between atoms: _466  and  _468
REMARK  192  A    between atoms: _468  and  _469
REMARK  193  A    between atoms: _468  and  _471
REMARK  194  A    between atoms: _471  and  _472
REMARK  195  A    between atoms: _476  and  _477
REMARK  196  A    between atoms: _482  and  _484
REMARK  197  A    between atoms: _484  and  _485
REMARK  198  A    between atoms: _484  and  _487
REMARK  199  A    between atoms: _487  and  _488
REMARK  200  A    between atoms: _492  and  _493
REMARK  201  A    between atoms: _498  and  _500
REMARK  202  A    between atoms: _500  and  _501
REMARK  203  A    between atoms: _500  and  _503
REMARK  204  A    between atoms: _506  and  _508
REMARK  205  A    between atoms: _508  and  _509
REMARK  206  A    between atoms: _508  and  _511
REMARK  207  A    between atoms: _511  and  _512
REMARK  208  A    between atoms: _517  and  _519
REMARK  209  A    between atoms: _519  and  _520
REMARK  210  A    between atoms: _519  and  _522
REMARK  211  A    between atoms: _522  and  _523
REMARK  212  A    between atoms: _526  and  _528
REMARK  213  A    between atoms: _528  and  _529
REMARK  214  A    between atoms: _528  and  _531
REMARK  215  A    between atoms: _531  and  _532
REMARK  216  A    between atoms: _535  and  _537
REMARK  217  A    between atoms: _537  and  _538
REMARK  218  A    between atoms: _540  and  _542
REMARK  219  A    between atoms: _542  and  _543
REMARK  220  A    between atoms: _542  and  _545
REMARK  221  A    between atoms: _545  and  _546
REMARK  222  A    between atoms: _546  and  _547
REMARK  223  A    between atoms: _547  and  _548
REMARK  224  A    between atoms: _557  and  _559
REMARK  225  A    between atoms: _559  and  _560
REMARK  226  A    between atoms: _559  and  _562
REMARK  227  A    between atoms: _562  and  _563
REMARK                            x       y       z     vdW  Elec       q    Type
REMARK                         _______ _______ _______ _____ _____    ______ ____
ROOT
ATOM      1  CA  VAL A   1      32.182  30.631   5.126  0.00  0.00    +0.133 C 
ENDROOT
BRANCH   1   2
ATOM      2  CB  VAL A   1      31.517  29.797   6.249  0.00  0.00    +0.023 C 
ATOM      3  CG2 VAL A   1      30.368  30.601   6.919  0.00  0.00    +0.002 C 
ATOM      4  CG1 VAL A   1      31.026  28.480   5.711  0.00  0.00    +0.002 C 
ENDBRANCH   1   2
BRANCH   1   5
ATOM      5  N   VAL A   1      31.261  30.870   4.031  0.00  0.00    -0.239 NA
ATOM      6  H   VAL A   1      31.026  30.088   3.386  0.00  0.00    +0.142 HD
ENDBRANCH   1   5
BRANCH   1   7
ATOM      7  C   VAL A   1      33.465  29.930   4.658  0.00  0.00    +0.224 C 
ATOM      8  O   VAL A   1      33.554  29.424   3.539  0.00  0.00    -0.287 OA
ENDBRANCH   1   7
TORSDOF 3
REMARK  Name = ../refined-set-2016/4djo/4djo_pocket.pdb
REMARK  227 active torsions:
REMARK  status: ('A' for Active; 'I' for Inactive)
REMARK    1  A    between atoms: _1  and  _3
REMARK    2  A    between atoms: _3  and  _4
REMARK    3  A    between atoms: _3  and  _6
REMARK    4  A    between atoms: _6  and  _7
REMARK    5  A    between atoms: _7  and  _8
REMARK    6  A    between atoms: _8  and  _9
REMARK    7  A    between atoms: _18  and  _20
REMARK    8  A    between atoms: _20  and  _21
REMARK    9  A    between atoms: _20  and  _23
REMARK   10  A    between atoms: _23  and  _24
REMARK   11  A    between atoms: _27  and  _29
REMARK   12  A    between atoms: _29  and  _30
REMARK   13  A    between atoms: _29  and  _32
REMARK   14  A    between atoms: _32  and  _33
REMARK   15  A    between atoms: _36  and  _38
REMARK   16  A    between atoms: _38  and  _39
REMARK   17  A    between atoms: _38  and  _41
REMARK   18  A    between atoms: _41  and  _42
REMARK   19  A    between atoms: _45  and  _47
REMARK   20  A    between atoms: _47  and  _48
REMARK   21  A    between atoms: _47  and  _50
REMARK   22  A    between atoms: _50  and  _51
REMARK   23  A    between atoms: _54  and  _56
REMARK   24  A    between atoms: _56  and  _57
REMARK   25  A    between atoms: _59  and  _61
REMARK   26  A    between atoms: _61  and  _62
REMARK   27  A    between atoms: _65  and  _67
REMARK   28  A    between atoms: _67  and  _68
REMARK   29  A    between atoms: _67  and  _70
REMARK   30  A    between atoms: _70  and  _71
REMARK   31  A    between atoms: _74  and  _76
REMARK   32  A    between atoms: _76  and  _77
REMARK   33  A    between atoms: _76  and  _79
REMARK   34  A    between atoms: _79  and  _80
REMARK   35  A    between atoms: _83  and  _85
REMARK   36  A    between atoms: _85  and  _86
REMARK   37  A    between atoms: _85  and  _88
REMARK   38  A    between atoms: _88  and  _89
REMARK   39  A    between atoms: _92  and  _94
REMARK   40  A    between atoms: _94  and  _95
REMARK   41  A    between atoms: _94  and  _97
REMARK   42  A    between atoms: _100  and  _102
REMARK   43  A    between atoms: _102  and  _103
REMARK   44  A    between atoms: _102  and  _105
REMARK   45  A    between atoms: _105  and  _106
REMARK   46  A    between atoms: _106  and  _107
REMARK   47  A    between atoms: _109  and  _111
REMARK   48  A    between atoms: _111  and  _112
REMARK   49  A    between atoms: _111  and  _114
REMARK   50  A    between atoms: _114  and  _115
REMARK   51  A    between atoms: _118  and  _120
REMARK   52  A    between atoms: _120  and  _121
REMARK   53  A    between atoms: _123  and  _125
REMARK   54  A    between atoms: _125  and  _126
REMARK   55  A    between atoms: _128  and  _130
REMARK   56  A    between atoms: _130  and  _131
REMARK   57  A    between atoms: _130  and  _133
REMARK   58  A    between atoms: _133  and  _134
REMARK   59  A    between atoms: _137  and  _139
REMARK   60  A    between atoms: _139  and  _140
REMARK   61  A    between atoms: _142  and  _144
REMARK   62  A    between atoms: _144  and  _145
REMARK   63  A    between atoms: _147  and  _149
REMARK   64  A    between atoms: _149  and  _150
REMARK   65  A    between atoms: _149  and  _152
REMARK   66  A    between atoms: _152  and  _153
REMARK   67  A    between atoms: _159  and  _161
REMARK   68  A    between atoms: _161  and  _162
REMARK   69  A    between atoms: _161  and  _164
REMARK   70  A    between atoms: _164  and  _165
REMARK   71  A    between atoms: _168  and  _170
REMARK   72  A    between atoms: _170  and  _171
REMARK   73  A    between atoms: _170  and  _173
REMARK   74  A    between atoms: _176  and  _178
REMARK   75  A    between atoms: _178  and  _179
REMARK   76  A    between atoms: _178  and  _181
REMARK   77  A    between atoms: _181  and  _182
REMARK   78  A    between atoms: _186  and  _187
REMARK   79  A    between atoms: _192  and  _194
REMARK   80  A    between atoms: _194  and  _195
REMARK   81  A    between atoms: _194  and  _197
REMARK   82  A    between atoms: _197  and  _198
REMARK   83  A    between atoms: _202  and  _203
REMARK   84  A    between atoms: _208  and  _210
REMARK   85  A    between atoms: _210  and  _211
REMARK   86  A    between atoms: _210  and  _213
REMARK   87  A    between atoms: _216  and  _218
REMARK   88  A    between atoms: _218  and  _219
REMARK   89  A    between atoms: _218  and  _221
REMARK   90  A    between atoms: _221  and  _222
REMARK   91  A    between atoms: _227  and  _229
REMARK   92  A    between atoms: _229  and  _230
REMARK   93  A    between atoms: _229  and  _232
REMARK   94  A    between atoms: _232  and  _233
REMARK   95  A    between atoms: _236  and  _238
REMARK   96  A    between atoms: _238  and  _239
REMARK   97  A    between atoms: _238  and  _241
REMARK   98  A    between atoms: _241  and  _242
REMARK   99  A    between atoms: _245  and  _247
REMARK  100  A    between atoms: _247  and  _248
REMARK  101  A    between atoms: _250  and  _252
REMARK  102  A    between atoms: _252  and  _253
REMARK  103  A    between atoms: _252  and  _255
REMARK  104  A    between atoms: _255  and  _256
REMARK  105  A    between atoms: _256  and  _257
REMARK  106  A    between atoms: _257  and  _258
REMARK  107  A    between atoms: _267  and  _269
REMARK  108  A    between atoms: _269  and  _270
REMARK  109  A    between atoms: _269  and  _272
REMARK  110  A    between atoms: _272  and  _273
REMARK  111  A    between atoms: _278  and  _280
REMARK  112  A    between atoms: _280  and  _281
REMARK  113  A    between atoms: _280  and  _283
REMARK  114  A    between atoms: _283  and  _284
REMARK  115  A    between atoms: _284  and  _285
REMARK  116  A    between atoms: _285  and  _286
REMARK  117  A    between atoms: _295  and  _297
REMARK  118  A    between atoms: _297  and  _298
REMARK  119  A    between atoms: _297  and  _300
REMARK  120  A    between atoms: _300  and  _301
REMARK  121  A    between atoms: _304  and  _306
REMARK  122  A    between atoms: _306  and  _307
REMARK  123  A    between atoms: _306  and  _309
REMARK  124  A    between atoms: _309  and  _310
REMARK  125  A    between atoms: _313  and  _315
REMARK  126  A    between atoms: _315  and  _316
REMARK  127  A    between atoms: _315  and  _318
REMARK  128  A    between atoms: _318  and  _319
REMARK  129  A    between atoms: _322  and  _324
REMARK  130  A    between atoms: _324  and  _325
REMARK  131  A    between atoms: _324  and  _327
REMARK  132  A    between atoms: _327  and  _328
REMARK  133  A    between atoms: _331  and  _333
REMARK  134  A    between atoms: _333  and  _334
REMARK  135  A    between atoms: _336  and  _338
REMARK  136  A    between atoms: _338  and  _339
REMARK  137  A    between atoms: _342  and  _344
REMARK  138  A    between atoms: _344  and  _345
REMARK  139  A    between atoms: _344  and  _347
REMARK  140  A    between atoms: _347  and  _348
REMARK  141  A    between atoms: _351  and  _353
REMARK  142  A    between atoms: _353  and  _354
REMARK  143  A    between atoms: _353  and  _356
REMARK  144  A    between atoms: _356  and  _357
REMARK  145  A    between atoms: _360  and  _362
REMARK  146  A    between atoms: _362  and  _363
REMARK  147  A    between atoms: _362  and  _365
REMARK  148  A    between atoms: _365  and  _366
REMARK  149  A    between atoms: _369  and  _371
REMARK  150  A    between atoms: _371  and  _372
REMARK  151  A    between atoms: _371  and  _374
REMARK  152  A    between atoms: _377  and  _379
REMARK  153  A    between atoms: _379  and  _380
REMARK  154  A    between atoms: _379  and  _382
REMARK  155  A    between atoms: _382  and  _383
REMARK  156  A    between atoms: _383  and  _384
REMARK  157  A    between atoms: _384  and  _385
REMARK  158  A    between atoms: _385  and  _386
REMARK  159  A    between atoms: _390  and  _392
REMARK  160  A    between atoms: _392  and  _393
REMARK  161  A    between atoms: _392  and  _395
REMARK  162  A    between atoms: _395  and  _396
REMARK  163  A    between atoms: _396  and  _397
REMARK  164  A    between atoms: _399  and  _401
REMARK  165  A    between atoms: _401  and  _402
REMARK  166  A    between atoms: _401  and  _404
REMARK  167  A    between atoms: _404  and  _405
REMARK  168  A    between atoms: _408  and  _410
REMARK  169  A    between atoms: _410  and  _411
REMARK  170  A    between atoms: _413  and  _415
REMARK  171  A    between atoms: _415  and  _416
REMARK  172  A    between atoms: _418  and  _420
REMARK  173  A    between atoms: _420  and  _421
REMARK  174  A    between atoms: _420  and  _423
REMARK  175  A    between atoms: _423  and  _424
REMARK  176  A    between atoms: _427  and  _429
REMARK  177  A    between atoms: _429  and  _430
REMARK  178  A    between atoms: _432  and  _434
REMARK  179  A    between atoms: _434  and  _435
REMARK  180  A    between atoms: _437  and  _439
REMARK  181  A    between atoms: _439  and  _440
REMARK  182  A    between atoms: _439  and  _442
REMARK  183  A    between atoms: _442  and  _443
REMARK  184  A    between atoms: _449  and  _451
REMARK  185  A    between atoms: _451  and  _452
REMARK  186  A    between atoms: _451  and  _454
REMARK  187  A    between atoms: _454  and  _455
REMARK  188  A    between atoms: _458  and  _460
REMARK  189  A    between atoms: _460  and  _461
REMARK  190  A    between atoms: _460  and  _463
REMARK  191  A    between atoms: _466  and  _468
REMARK  192  A    between atoms: _468  and  _469
REMARK  193  A    between atoms: _468  and  _471
REMARK  194  A    between atoms: _471  and  _472
REMARK  195  A    between atoms: _476  and  _477
REMARK  196  A    between atoms: _482  and  _484
REMARK  197  A    between atoms: _484  and  _485
REMARK  198  A    between atoms: _484  and  _487
REMARK  199  A    between atoms: _487  and  _488
REMARK  200  A    between atoms: _492  and  _493
REMARK  201  A    between atoms: _498  and  _500
REMARK  202  A    between atoms: _500  and  _501
REMARK  203  A    between atoms: _500  and  _503
REMARK  204  A    between atoms: _506  and  _508
REMARK  205  A    between atoms: _508  and  _509
REMARK  206  A    between atoms: _508  and  _511
REMARK  207  A    between atoms: _511  and  _512
REMARK  208  A    between atoms: _517  and  _519
REMARK  209  A    between atoms: _519  and  _520
REMARK  210  A    between atoms: _519  and  _522
REMARK  211  A    between atoms: _522  and  _523
REMARK  212  A    between atoms: _526  and  _528
REMARK  213  A    between atoms: _528  and  _529
REMARK  214  A    between atoms: _528  and  _531
REMARK  215  A    between atoms: _531  and  _532
REMARK  216  A    between atoms: _535  and  _537
REMARK  217  A    between atoms: _537  and  _538
REMARK  218  A    between atoms: _540  and  _542
REMARK  219  A    between atoms: _542  and  _543
REMARK  220  A    between atoms: _542  and  _545
REMARK  221  A    between atoms: _545  and  _546
REMARK  222  A    between atoms: _546  and  _547
REMARK  223  A    between atoms: _547  and  _548
REMARK  224  A    between atoms: _557  and  _559
REMARK  225  A    between atoms: _559  and  _560
REMARK  226  A    between atoms: _559  and  _562
REMARK  227  A    between atoms: _562  and  _563
REMARK                            x       y       z     vdW  Elec       q    Type
REMARK                         _______ _______ _______ _____ _____    ______ ____
ROOT
ATOM      1  CA  LEU A   1      33.166  27.488  10.000  0.00  0.00    +0.133 C 
ENDROOT
BRANCH   1   2
ATOM      2  N   LEU A   1      33.498  26.630  11.137  0.00  0.00    -0.239 NA
ATOM      3  H   LEU A   1      32.795  26.515  11.895  0.00  0.00    +0.142 HD
ENDBRANCH   1   2
BRANCH   1   4
ATOM      4  C   LEU A   1      33.414  28.939  10.396  0.00  0.00    +0.224 C 
ATOM      5  O   LEU A   1      33.008  29.384  11.470  0.00  0.00    -0.287 OA
ENDBRANCH   1   4
BRANCH   1   6
ATOM      6  CB  LEU A   1      31.705  27.291   9.586  0.00  0.00    +0.025 C 
BRANCH   6   7
ATOM      7  CG  LEU A   1      31.281  25.859   9.257  0.00  0.00    +0.002 C 
ATOM      8  CD2 LEU A   1      29.840  25.804   8.781  0.00  0.00    +0.000 C 
ATOM      9  CD1 LEU A   1      32.237  25.268   8.195  0.00  0.00    +0.000 C 
ENDBRANCH   6   7
ENDBRANCH   1   6
TORSDOF 4
REMARK  Name = ../refined-set-2016/4djo/4djo_pocket.pdb
REMARK  227 active torsions:
REMARK  status: ('A' for Active; 'I' for Inactive)
REMARK    1  A    between atoms: _1  and  _3
REMARK    2  A    between atoms: _3  and  _4
REMARK    3  A    between atoms: _3  and  _6
REMARK    4  A    between atoms: _6  and  _7
REMARK    5  A    between atoms: _7  and  _8
REMARK    6  A    between atoms: _8  and  _9
REMARK    7  A    between atoms: _18  and  _20
REMARK    8  A    between atoms: _20  and  _21
REMARK    9  A    between atoms: _20  and  _23
REMARK   10  A    between atoms: _23  and  _24
REMARK   11  A    between atoms: _27  and  _29
REMARK   12  A    between atoms: _29  and  _30
REMARK   13  A    between atoms: _29  and  _32
REMARK   14  A    between atoms: _32  and  _33
REMARK   15  A    between atoms: _36  and  _38
REMARK   16  A    between atoms: _38  and  _39
REMARK   17  A    between atoms: _38  and  _41
REMARK   18  A    between atoms: _41  and  _42
REMARK   19  A    between atoms: _45  and  _47
REMARK   20  A    between atoms: _47  and  _48
REMARK   21  A    between atoms: _47  and  _50
REMARK   22  A    between atoms: _50  and  _51
REMARK   23  A    between atoms: _54  and  _56
REMARK   24  A    between atoms: _56  and  _57
REMARK   25  A    between atoms: _59  and  _61
REMARK   26  A    between atoms: _61  and  _62
REMARK   27  A    between atoms: _65  and  _67
REMARK   28  A    between atoms: _67  and  _68
REMARK   29  A    between atoms: _67  and  _70
REMARK   30  A    between atoms: _70  and  _71
REMARK   31  A    between atoms: _74  and  _76
REMARK   32  A    between atoms: _76  and  _77
REMARK   33  A    between atoms: _76  and  _79
REMARK   34  A    between atoms: _79  and  _80
REMARK   35  A    between atoms: _83  and  _85
REMARK   36  A    between atoms: _85  and  _86
REMARK   37  A    between atoms: _85  and  _88
REMARK   38  A    between atoms: _88  and  _89
REMARK   39  A    between atoms: _92  and  _94
REMARK   40  A    between atoms: _94  and  _95
REMARK   41  A    between atoms: _94  and  _97
REMARK   42  A    between atoms: _100  and  _102
REMARK   43  A    between atoms: _102  and  _103
REMARK   44  A    between atoms: _102  and  _105
REMARK   45  A    between atoms: _105  and  _106
REMARK   46  A    between atoms: _106  and  _107
REMARK   47  A    between atoms: _109  and  _111
REMARK   48  A    between atoms: _111  and  _112
REMARK   49  A    between atoms: _111  and  _114
REMARK   50  A    between atoms: _114  and  _115
REMARK   51  A    between atoms: _118  and  _120
REMARK   52  A    between atoms: _120  and  _121
REMARK   53  A    between atoms: _123  and  _125
REMARK   54  A    between atoms: _125  and  _126
REMARK   55  A    between atoms: _128  and  _130
REMARK   56  A    between atoms: _130  and  _131
REMARK   57  A    between atoms: _130  and  _133
REMARK   58  A    between atoms: _133  and  _134
REMARK   59  A    between atoms: _137  and  _139
REMARK   60  A    between atoms: _139  and  _140
REMARK   61  A    between atoms: _142  and  _144
REMARK   62  A    between atoms: _144  and  _145
REMARK   63  A    between atoms: _147  and  _149
REMARK   64  A    between atoms: _149  and  _150
REMARK   65  A    between atoms: _149  and  _152
REMARK   66  A    between atoms: _152  and  _153
REMARK   67  A    between atoms: _159  and  _161
REMARK   68  A    between atoms: _161  and  _162
REMARK   69  A    between atoms: _161  and  _164
REMARK   70  A    between atoms: _164  and  _165
REMARK   71  A    between atoms: _168  and  _170
REMARK   72  A    between atoms: _170  and  _171
REMARK   73  A    between atoms: _170  and  _173
REMARK   74  A    between atoms: _176  and  _178
REMARK   75  A    between atoms: _178  and  _179
REMARK   76  A    between atoms: _178  and  _181
REMARK   77  A    between atoms: _181  and  _182
REMARK   78  A    between atoms: _186  and  _187
REMARK   79  A    between atoms: _192  and  _194
REMARK   80  A    between atoms: _194  and  _195
REMARK   81  A    between atoms: _194  and  _197
REMARK   82  A    between atoms: _197  and  _198
REMARK   83  A    between atoms: _202  and  _203
REMARK   84  A    between atoms: _208  and  _210
REMARK   85  A    between atoms: _210  and  _211
REMARK   86  A    between atoms: _210  and  _213
REMARK   87  A    between atoms: _216  and  _218
REMARK   88  A    between atoms: _218  and  _219
REMARK   89  A    between atoms: _218  and  _221
REMARK   90  A    between atoms: _221  and  _222
REMARK   91  A    between atoms: _227  and  _229
REMARK   92  A    between atoms: _229  and  _230
REMARK   93  A    between atoms: _229  and  _232
REMARK   94  A    between atoms: _232  and  _233
REMARK   95  A    between atoms: _236  and  _238
REMARK   96  A    between atoms: _238  and  _239
REMARK   97  A    between atoms: _238  and  _241
REMARK   98  A    between atoms: _241  and  _242
REMARK   99  A    between atoms: _245  and  _247
REMARK  100  A    between atoms: _247  and  _248
REMARK  101  A    between atoms: _250  and  _252
REMARK  102  A    between atoms: _252  and  _253
REMARK  103  A    between atoms: _252  and  _255
REMARK  104  A    between atoms: _255  and  _256
REMARK  105  A    between atoms: _256  and  _257
REMARK  106  A    between atoms: _257  and  _258
REMARK  107  A    between atoms: _267  and  _269
REMARK  108  A    between atoms: _269  and  _270
REMARK  109  A    between atoms: _269  and  _272
REMARK  110  A    between atoms: _272  and  _273
REMARK  111  A    between atoms: _278  and  _280
REMARK  112  A    between atoms: _280  and  _281
REMARK  113  A    between atoms: _280  and  _283
REMARK  114  A    between atoms: _283  and  _284
REMARK  115  A    between atoms: _284  and  _285
REMARK  116  A    between atoms: _285  and  _286
REMARK  117  A    between atoms: _295  and  _297
REMARK  118  A    between atoms: _297  and  _298
REMARK  119  A    between atoms: _297  and  _300
REMARK  120  A    between atoms: _300  and  _301
REMARK  121  A    between atoms: _304  and  _306
REMARK  122  A    between atoms: _306  and  _307
REMARK  123  A    between atoms: _306  and  _309
REMARK  124  A    between atoms: _309  and  _310
REMARK  125  A    between atoms: _313  and  _315
REMARK  126  A    between atoms: _315  and  _316
REMARK  127  A    between atoms: _315  and  _318
REMARK  128  A    between atoms: _318  and  _319
REMARK  129  A    between atoms: _322  and  _324
REMARK  130  A    between atoms: _324  and  _325
REMARK  131  A    between atoms: _324  and  _327
REMARK  132  A    between atoms: _327  and  _328
REMARK  133  A    between atoms: _331  and  _333
REMARK  134  A    between atoms: _333  and  _334
REMARK  135  A    between atoms: _336  and  _338
REMARK  136  A    between atoms: _338  and  _339
REMARK  137  A    between atoms: _342  and  _344
REMARK  138  A    between atoms: _344  and  _345
REMARK  139  A    between atoms: _344  and  _347
REMARK  140  A    between atoms: _347  and  _348
REMARK  141  A    between atoms: _351  and  _353
REMARK  142  A    between atoms: _353  and  _354
REMARK  143  A    between atoms: _353  and  _356
REMARK  144  A    between atoms: _356  and  _357
REMARK  145  A    between atoms: _360  and  _362
REMARK  146  A    between atoms: _362  and  _363
REMARK  147  A    between atoms: _362  and  _365
REMARK  148  A    between atoms: _365  and  _366
REMARK  149  A    between atoms: _369  and  _371
REMARK  150  A    between atoms: _371  and  _372
REMARK  151  A    between atoms: _371  and  _374
REMARK  152  A    between atoms: _377  and  _379
REMARK  153  A    between atoms: _379  and  _380
REMARK  154  A    between atoms: _379  and  _382
REMARK  155  A    between atoms: _382  and  _383
REMARK  156  A    between atoms: _383  and  _384
REMARK  157  A    between atoms: _384  and  _385
REMARK  158  A    between atoms: _385  and  _386
REMARK  159  A    between atoms: _390  and  _392
REMARK  160  A    between atoms: _392  and  _393
REMARK  161  A    between atoms: _392  and  _395
REMARK  162  A    between atoms: _395  and  _396
REMARK  163  A    between atoms: _396  and  _397
REMARK  164  A    between atoms: _399  and  _401
REMARK  165  A    between atoms: _401  and  _402
REMARK  166  A    between atoms: _401  and  _404
REMARK  167  A    between atoms: _404  and  _405
REMARK  168  A    between atoms: _408  and  _410
REMARK  169  A    between atoms: _410  and  _411
REMARK  170  A    between atoms: _413  and  _415
REMARK  171  A    between atoms: _415  and  _416
REMARK  172  A    between atoms: _418  and  _420
REMARK  173  A    between atoms: _420  and  _421
REMARK  174  A    between atoms: _420  and  _423
REMARK  175  A    between atoms: _423  and  _424
REMARK  176  A    between atoms: _427  and  _429
REMARK  177  A    between atoms: _429  and  _430
REMARK  178  A    between atoms: _432  and  _434
REMARK  179  A    between atoms: _434  and  _435
REMARK  180  A    between atoms: _437  and  _439
REMARK  181  A    between atoms: _439  and  _440
REMARK  182  A    between atoms: _439  and  _442
REMARK  183  A    between atoms: _442  and  _443
REMARK  184  A    between atoms: _449  and  _451
REMARK  185  A    between atoms: _451  and  _452
REMARK  186  A    between atoms: _451  and  _454
REMARK  187  A    between atoms: _454  and  _455
REMARK  188  A    between atoms: _458  and  _460
REMARK  189  A    between atoms: _460  and  _461
REMARK  190  A    between atoms: _460  and  _463
REMARK  191  A    between atoms: _466  and  _468
REMARK  192  A    between atoms: _468  and  _469
REMARK  193  A    between atoms: _468  and  _471
REMARK  194  A    between atoms: _471  and  _472
REMARK  195  A    between atoms: _476  and  _477
REMARK  196  A    between atoms: _482  and  _484
REMARK  197  A    between atoms: _484  and  _485
REMARK  198  A    between atoms: _484  and  _487
REMARK  199  A    between atoms: _487  and  _488
REMARK  200  A    between atoms: _492  and  _493
REMARK  201  A    between atoms: _498  and  _500
REMARK  202  A    between atoms: _500  and  _501
REMARK  203  A    between atoms: _500  and  _503
REMARK  204  A    between atoms: _506  and  _508
REMARK  205  A    between atoms: _508  and  _509
REMARK  206  A    between atoms: _508  and  _511
REMARK  207  A    between atoms: _511  and  _512
REMARK  208  A    between atoms: _517  and  _519
REMARK  209  A    between atoms: _519  and  _520
REMARK  210  A    between atoms: _519  and  _522
REMARK  211  A    between atoms: _522  and  _523
REMARK  212  A    between atoms: _526  and  _528
REMARK  213  A    between atoms: _528  and  _529
REMARK  214  A    between atoms: _528  and  _531
REMARK  215  A    between atoms: _531  and  _532
REMARK  216  A    between atoms: _535  and  _537
REMARK  217  A    between atoms: _537  and  _538
REMARK  218  A    between atoms: _540  and  _542
REMARK  219  A    between atoms: _542  and  _543
REMARK  220  A    between atoms: _542  and  _545
REMARK  221  A    between atoms: _545  and  _546
REMARK  222  A    between atoms: _546  and  _547
REMARK  223  A    between atoms: _547  and  _548
REMARK  224  A    between atoms: _557  and  _559
REMARK  225  A    between atoms: _559  and  _560
REMARK  226  A    between atoms: _559  and  _562
REMARK  227  A    between atoms: _562  and  _563
REMARK                            x       y       z     vdW  Elec       q    Type
REMARK                         _______ _______ _______ _____ _____    ______ ____
ROOT
ATOM      1  CA  ILE A   6      28.002  29.900  17.904  0.00  0.00    +0.149 C 
ENDROOT
BRANCH   1   2
ATOM      2  C   ILE A   6      28.681  28.531  17.944  0.00  0.00    +0.241 C 
ATOM      3  N   ILE A   7      28.500  27.810  19.052  0.00  0.00    -0.297 N 
ATOM      4  H   ILE A   7      28.006  28.239  19.860  0.00  0.00    +0.150 HD
ATOM      5  O   ILE A   6      29.377  28.142  17.006  0.00  0.00    -0.273 OA
BRANCH   3   6
ATOM      6  CA  ILE A   7      28.977  26.435  19.160  0.00  0.00    +0.149 C 
BRANCH   6   7
ATOM      7  C   ILE A   7      27.786  25.549  18.810  0.00  0.00    +0.241 C 
ATOM      8  O   ILE A   7      26.768  25.540  19.523  0.00  0.00    -0.273 OA
ATOM      9  N   GLY A   8      27.912  24.824  17.704  0.00  0.00    -0.295 N 
ATOM     10  H   GLY A   8      28.804  24.876  17.173  0.00  0.00    +0.150 HD
BRANCH   9  11
ATOM     11  CA  GLY A   8      26.852  23.959  17.205  0.00  0.00    +0.176 C 
BRANCH  11  12
ATOM     12  C   GLY A   8      26.969  22.521  17.683  0.00  0.00    +0.243 C 
ATOM     13  O   GLY A   8      27.914  22.138  18.372  0.00  0.00    -0.273 OA
ATOM     14  N   ARG A   9      26.023  21.700  17.239  0.00  0.00    -0.297 N 
ATOM     15  H   ARG A   9      25.336  22.045  16.538  0.00  0.00    +0.150 HD
BRANCH  14  16
ATOM     16  CA  ARG A   9      25.929  20.334  17.711  0.00  0.00    +0.149 C 
BRANCH  16  17
ATOM     17  C   ARG A   9      27.188  19.522  17.407  0.00  0.00    +0.241 C 
ATOM     18  O   ARG A   9      27.537  18.647  18.173  0.00  0.00    -0.273 OA
ATOM     19  N   ASN A  10      27.894  19.831  16.323  0.00  0.00    -0.298 N 
ATOM     20  H   ASN A  10      27.604  20.625  15.717  0.00  0.00    +0.150 HD
BRANCH  19  21
ATOM     21  CA  ASN A  10      29.080  19.046  15.991  0.00  0.00    +0.146 C 
BRANCH  21  22
ATOM     22  C   ASN A  10      30.110  19.036  17.128  0.00  0.00    +0.227 C 
ATOM     23  O   ASN A  10      30.798  18.038  17.338  0.00  0.00    -0.286 OA
ENDBRANCH  21  22
BRANCH  21  24
ATOM     24  CB  ASN A  10      29.702  19.512  14.677  0.00  0.00    +0.112 C 
BRANCH  24  25
ATOM     25  CG  ASN A  10      30.411  20.838  14.801  0.00  0.00    +0.222 C 
ATOM     26  OD1 ASN A  10      29.823  21.809  15.241  0.00  0.00    -0.275 OA
ATOM     27  ND2 ASN A  10      31.687  20.879  14.419  0.00  0.00    -0.329 N 
ATOM     28 HD21 ASN A  10      32.223  21.767  14.491  0.00  0.00    +0.145 HD
ATOM     29 HD22 ASN A  10      32.147  20.023  14.049  0.00  0.00    +0.145 HD
ENDBRANCH  24  25
ENDBRANCH  21  24
ENDBRANCH  19  21
ENDBRANCH  16  17
BRANCH  16  30
ATOM     30  CB  ARG A   9      24.689  19.638  17.148  0.00  0.00    +0.033 C 
BRANCH  30  31
ATOM     31  CG  ARG A   9      23.383  20.218  17.668  0.00  0.00    +0.045 C 
BRANCH  31  32
ATOM     32  CD  ARG A   9      22.188  19.366  17.295  0.00  0.00    +0.174 C 
BRANCH  32  33
ATOM     33  NE  ARG A   9      22.013  19.340  15.843  0.00  0.00    -0.265 N 
ATOM     34  HE  ARG A   9      21.541  20.157  15.406  0.00  0.00    +0.259 HD
ATOM     35  CZ  ARG A   9      22.408  18.357  15.031  0.00  0.00    +0.342 C 
ATOM     36  NH2 ARG A   9      23.010  17.263  15.477  0.00  0.00    -0.292 N 
ATOM     37 HH21 ARG A   9      23.191  17.147  16.495  0.00  0.00    +0.255 HD
ATOM     38 HH22 ARG A   9      23.302  16.521  14.809  0.00  0.00    +0.255 HD
ATOM     39  NH1 ARG A   9      22.216  18.484  13.735  0.00  0.00    -0.292 N 
ATOM     40 HH11 ARG A   9      21.763  19.341  13.358  0.00  0.00    +0.255 HD
ATOM     41 HH12 ARG A   9      22.518  17.728  13.088  0.00  0.00    +0.255 HD
ENDBRANCH  32  33
ENDBRANCH  31  32
ENDBRANCH  30  31
ENDBRANCH  16  30
ENDBRANCH  14  16
ENDBRANCH  11  12
ENDBRANCH   9  11
ENDBRANCH   6   7
BRANCH   6  42
ATOM     42  CB  ILE A   7      29.460  26.106  20.585  0.00  0.00    +0.027 C 
ATOM     43  CG2 ILE A   7      30.015  24.668  20.620  0.00  0.00    +0.002 C 
BRANCH  42  44
ATOM     44  CG1 ILE A   7      30.515  27.130  21.064  0.00  0.00    +0.002 C 
ATOM     45  CD1 ILE A   7      31.705  27.284  20.118  0.00  0.00    +0.000 C 
ENDBRANCH  42  44
ENDBRANCH   6  42
ENDBRANCH   3   6
ENDBRANCH   1   2
BRANCH   1  48
ATOM     46  C   ASN A   5      29.151  32.023  18.204  0.00  0.00    +0.241 C 
ATOM     47  O   ASN A   5      28.597  32.205  19.298  0.00  0.00    -0.273 OA
ATOM     48  N   ILE A   6      28.934  30.944  17.458  0.00  0.00    -0.297 N 
ATOM     49  H   ILE A   6      29.429  30.838  16.550  0.00  0.00    +0.150 HD
BRANCH  46  50
ATOM     50  CA  ASN A   5      30.117  33.066  17.643  0.00  0.00    +0.158 C 
BRANCH  50  52
ATOM     51  C   VAL A   4      28.397  34.568  16.835  0.00  0.00    +0.241 C 
ATOM     52  N   ASN A   5      29.454  34.367  17.620  0.00  0.00    -0.297 N 
ATOM     53  H   ASN A   5      29.809  35.140  18.219  0.00  0.00    +0.150 HD
ATOM     54  O   VAL A   4      28.049  33.758  15.972  0.00  0.00    -0.273 OA
BRANCH  51  55
ATOM     55  CA  VAL A   4      27.612  35.860  17.028  0.00  0.00    +0.149 C 
BRANCH  55  58
ATOM     56  C   PRO A   3      26.774  37.442  15.352  0.00  0.00    +0.245 C 
ATOM     57  O   PRO A   3      27.043  38.431  16.034  0.00  0.00    -0.273 OA
ATOM     58  N   VAL A   4      27.037  36.195  15.733  0.00  0.00    -0.297 N 
ATOM     59  H   VAL A   4      26.821  35.421  15.073  0.00  0.00    +0.150 HD
BRANCH  56  62
ATOM     60  C   THR A   2      27.589  36.314  12.570  0.00  0.00    +0.247 C 
ATOM     61  N   PRO A   3      26.350  36.551  13.013  0.00  0.00    -0.264 N 
ATOM     62  CA  PRO A   3      26.094  37.609  13.995  0.00  0.00    +0.175 C 
ATOM     63  CB  PRO A   3      24.575  37.575  14.198  0.00  0.00    -0.000 C 
ATOM     64  CG  PRO A   3      24.071  36.427  13.438  0.00  0.00    -0.007 C 
ATOM     65  CD  PRO A   3      25.119  35.852  12.594  0.00  0.00    +0.120 C 
ATOM     66  O   THR A   2      28.554  37.012  12.898  0.00  0.00    -0.273 OA
BRANCH  60  67
ATOM     67  CA  THR A   2      27.781  35.126  11.628  0.00  0.00    +0.176 C 
BRANCH  67  69
ATOM     68  C   PRO A   1      28.635  36.217   9.646  0.00  0.00    +0.239 C 
ATOM     69  N   THR A   2      28.843  35.445  10.698  0.00  0.00    -0.295 N 
ATOM     70  H   THR A   2      29.794  35.057  10.862  0.00  0.00    +0.150 HD
ATOM     71  O   PRO A   1      27.515  36.551   9.305  0.00  0.00    -0.274 OA
BRANCH  68  73
ATOM     72  N   PRO A   1      30.697  35.599   8.344  0.00  0.00    -0.210 NA
ATOM     73  CA  PRO A   1      29.878  36.682   8.879  0.00  0.00    +0.149 C 
ATOM     74  CB  PRO A   1      29.507  37.476   7.627  0.00  0.00    +0.028 C 
ATOM     75  CG  PRO A   1      29.498  36.459   6.550  0.00  0.00    +0.021 C 
ATOM     76  CD  PRO A   1      30.610  35.523   6.871  0.00  0.00    +0.089 C 
ENDBRANCH  68  73
ENDBRANCH  67  69
BRANCH  67  77
ATOM     77  CB  THR A   2      28.091  33.867  12.435  0.00  0.00    +0.137 C 
ATOM     78  CG2 THR A   2      29.443  34.016  13.157  0.00  0.00    +0.034 C 
BRANCH  77  79
ATOM     79  OG1 THR A   2      27.054  33.656  13.400  0.00  0.00    -0.382 OA
ATOM     80  HG1 THR A   2      27.006  34.436  14.007  0.00  0.00    +0.210 HD
ENDBRANCH  77  79
ENDBRANCH  67  77
ENDBRANCH  60  67
ENDBRANCH  56  62
ENDBRANCH  55  58
BRANCH  55  81
ATOM     81  CB  VAL A   4      26.502  35.609  18.081  0.00  0.00    +0.027 C 
ATOM     82  CG2 VAL A   4      27.078  34.983  19.343  0.00  0.00    +0.002 C 
ATOM     83  CG1 VAL A   4      25.746  36.893  18.408  0.00  0.00    +0.002 C 
ENDBRANCH  55  81
ENDBRANCH  51  55
ENDBRANCH  50  52
BRANCH  50  84
ATOM     84  CB  ASN A   5      31.354  33.063  18.544  0.00  0.00    +0.114 C 
BRANCH  84  85
ATOM     85  CG  ASN A   5      32.455  33.972  18.055  0.00  0.00    +0.222 C 
ATOM     86  ND2 ASN A   5      33.112  34.651  19.000  0.00  0.00    -0.329 N 
ATOM     87 HD21 ASN A   5      32.828  34.562  19.997  0.00  0.00    +0.145 HD
ATOM     88 HD22 ASN A   5      33.907  35.268  18.739  0.00  0.00    +0.145 HD
ATOM     89  OD1 ASN A   5      32.748  34.039  16.858  0.00  0.00    -0.275 OA
ENDBRANCH  84  85
ENDBRANCH  50  84
ENDBRANCH  46  50
ENDBRANCH   1  48
BRANCH   1  90
ATOM     90  CB  ILE A   6      26.684  29.844  17.069  0.00  0.00    +0.027 C 
ATOM     91  CG2 ILE A   6      25.866  31.166  17.187  0.00  0.00    +0.002 C 
BRANCH  90  92
ATOM     92  CG1 ILE A   6      26.963  29.471  15.620  0.00  0.00    +0.002 C 
ATOM     93  CD1 ILE A   6      25.719  29.566  14.716  0.00  0.00    +0.000 C 
ENDBRANCH  90  92
ENDBRANCH   1  90
TORSDOF 33
REMARK  Name = ../refined-set-2016/4djo/4djo_pocket.pdb
REMARK  227 active torsions:
REMARK  status: ('A' for Active; 'I' for Inactive)
REMARK    1  A    between atoms: _1  and  _3
REMARK    2  A    between atoms: _3  and  _4
REMARK    3  A    between atoms: _3  and  _6
REMARK    4  A    between atoms: _6  and  _7
REMARK    5  A    between atoms: _7  and  _8
REMARK    6  A    between atoms: _8  and  _9
REMARK    7  A    between atoms: _18  and  _20
REMARK    8  A    between atoms: _20  and  _21
REMARK    9  A    between atoms: _20  and  _23
REMARK   10  A    between atoms: _23  and  _24
REMARK   11  A    between atoms: _27  and  _29
REMARK   12  A    between atoms: _29  and  _30
REMARK   13  A    between atoms: _29  and  _32
REMARK   14  A    between atoms: _32  and  _33
REMARK   15  A    between atoms: _36  and  _38
REMARK   16  A    between atoms: _38  and  _39
REMARK   17  A    between atoms: _38  and  _41
REMARK   18  A    between atoms: _41  and  _42
REMARK   19  A    between atoms: _45  and  _47
REMARK   20  A    between atoms: _47  and  _48
REMARK   21  A    between atoms: _47  and  _50
REMARK   22  A    between atoms: _50  and  _51
REMARK   23  A    between atoms: _54  and  _56
REMARK   24  A    between atoms: _56  and  _57
REMARK   25  A    between atoms: _59  and  _61
REMARK   26  A    between atoms: _61  and  _62
REMARK   27  A    between atoms: _65  and  _67
REMARK   28  A    between atoms: _67  and  _68
REMARK   29  A    between atoms: _67  and  _70
REMARK   30  A    between atoms: _70  and  _71
REMARK   31  A    between atoms: _74  and  _76
REMARK   32  A    between atoms: _76  and  _77
REMARK   33  A    between atoms: _76  and  _79
REMARK   34  A    between atoms: _79  and  _80
REMARK   35  A    between atoms: _83  and  _85
REMARK   36  A    between atoms: _85  and  _86
REMARK   37  A    between atoms: _85  and  _88
REMARK   38  A    between atoms: _88  and  _89
REMARK   39  A    between atoms: _92  and  _94
REMARK   40  A    between atoms: _94  and  _95
REMARK   41  A    between atoms: _94  and  _97
REMARK   42  A    between atoms: _100  and  _102
REMARK   43  A    between atoms: _102  and  _103
REMARK   44  A    between atoms: _102  and  _105
REMARK   45  A    between atoms: _105  and  _106
REMARK   46  A    between atoms: _106  and  _107
REMARK   47  A    between atoms: _109  and  _111
REMARK   48  A    between atoms: _111  and  _112
REMARK   49  A    between atoms: _111  and  _114
REMARK   50  A    between atoms: _114  and  _115
REMARK   51  A    between atoms: _118  and  _120
REMARK   52  A    between atoms: _120  and  _121
REMARK   53  A    between atoms: _123  and  _125
REMARK   54  A    between atoms: _125  and  _126
REMARK   55  A    between atoms: _128  and  _130
REMARK   56  A    between atoms: _130  and  _131
REMARK   57  A    between atoms: _130  and  _133
REMARK   58  A    between atoms: _133  and  _134
REMARK   59  A    between atoms: _137  and  _139
REMARK   60  A    between atoms: _139  and  _140
REMARK   61  A    between atoms: _142  and  _144
REMARK   62  A    between atoms: _144  and  _145
REMARK   63  A    between atoms: _147  and  _149
REMARK   64  A    between atoms: _149  and  _150
REMARK   65  A    between atoms: _149  and  _152
REMARK   66  A    between atoms: _152  and  _153
REMARK   67  A    between atoms: _159  and  _161
REMARK   68  A    between atoms: _161  and  _162
REMARK   69  A    between atoms: _161  and  _164
REMARK   70  A    between atoms: _164  and  _165
REMARK   71  A    between atoms: _168  and  _170
REMARK   72  A    between atoms: _170  and  _171
REMARK   73  A    between atoms: _170  and  _173
REMARK   74  A    between atoms: _176  and  _178
REMARK   75  A    between atoms: _178  and  _179
REMARK   76  A    between atoms: _178  and  _181
REMARK   77  A    between atoms: _181  and  _182
REMARK   78  A    between atoms: _186  and  _187
REMARK   79  A    between atoms: _192  and  _194
REMARK   80  A    between atoms: _194  and  _195
REMARK   81  A    between atoms: _194  and  _197
REMARK   82  A    between atoms: _197  and  _198
REMARK   83  A    between atoms: _202  and  _203
REMARK   84  A    between atoms: _208  and  _210
REMARK   85  A    between atoms: _210  and  _211
REMARK   86  A    between atoms: _210  and  _213
REMARK   87  A    between atoms: _216  and  _218
REMARK   88  A    between atoms: _218  and  _219
REMARK   89  A    between atoms: _218  and  _221
REMARK   90  A    between atoms: _221  and  _222
REMARK   91  A    between atoms: _227  and  _229
REMARK   92  A    between atoms: _229  and  _230
REMARK   93  A    between atoms: _229  and  _232
REMARK   94  A    between atoms: _232  and  _233
REMARK   95  A    between atoms: _236  and  _238
REMARK   96  A    between atoms: _238  and  _239
REMARK   97  A    between atoms: _238  and  _241
REMARK   98  A    between atoms: _241  and  _242
REMARK   99  A    between atoms: _245  and  _247
REMARK  100  A    between atoms: _247  and  _248
REMARK  101  A    between atoms: _250  and  _252
REMARK  102  A    between atoms: _252  and  _253
REMARK  103  A    between atoms: _252  and  _255
REMARK  104  A    between atoms: _255  and  _256
REMARK  105  A    between atoms: _256  and  _257
REMARK  106  A    between atoms: _257  and  _258
REMARK  107  A    between atoms: _267  and  _269
REMARK  108  A    between atoms: _269  and  _270
REMARK  109  A    between atoms: _269  and  _272
REMARK  110  A    between atoms: _272  and  _273
REMARK  111  A    between atoms: _278  and  _280
REMARK  112  A    between atoms: _280  and  _281
REMARK  113  A    between atoms: _280  and  _283
REMARK  114  A    between atoms: _283  and  _284
REMARK  115  A    between atoms: _284  and  _285
REMARK  116  A    between atoms: _285  and  _286
REMARK  117  A    between atoms: _295  and  _297
REMARK  118  A    between atoms: _297  and  _298
REMARK  119  A    between atoms: _297  and  _300
REMARK  120  A    between atoms: _300  and  _301
REMARK  121  A    between atoms: _304  and  _306
REMARK  122  A    between atoms: _306  and  _307
REMARK  123  A    between atoms: _306  and  _309
REMARK  124  A    between atoms: _309  and  _310
REMARK  125  A    between atoms: _313  and  _315
REMARK  126  A    between atoms: _315  and  _316
REMARK  127  A    between atoms: _315  and  _318
REMARK  128  A    between atoms: _318  and  _319
REMARK  129  A    between atoms: _322  and  _324
REMARK  130  A    between atoms: _324  and  _325
REMARK  131  A    between atoms: _324  and  _327
REMARK  132  A    between atoms: _327  and  _328
REMARK  133  A    between atoms: _331  and  _333
REMARK  134  A    between atoms: _333  and  _334
REMARK  135  A    between atoms: _336  and  _338
REMARK  136  A    between atoms: _338  and  _339
REMARK  137  A    between atoms: _342  and  _344
REMARK  138  A    between atoms: _344  and  _345
REMARK  139  A    between atoms: _344  and  _347
REMARK  140  A    between atoms: _347  and  _348
REMARK  141  A    between atoms: _351  and  _353
REMARK  142  A    between atoms: _353  and  _354
REMARK  143  A    between atoms: _353  and  _356
REMARK  144  A    between atoms: _356  and  _357
REMARK  145  A    between atoms: _360  and  _362
REMARK  146  A    between atoms: _362  and  _363
REMARK  147  A    between atoms: _362  and  _365
REMARK  148  A    between atoms: _365  and  _366
REMARK  149  A    between atoms: _369  and  _371
REMARK  150  A    between atoms: _371  and  _372
REMARK  151  A    between atoms: _371  and  _374
REMARK  152  A    between atoms: _377  and  _379
REMARK  153  A    between atoms: _379  and  _380
REMARK  154  A    between atoms: _379  and  _382
REMARK  155  A    between atoms: _382  and  _383
REMARK  156  A    between atoms: _383  and  _384
REMARK  157  A    between atoms: _384  and  _385
REMARK  158  A    between atoms: _385  and  _386
REMARK  159  A    between atoms: _390  and  _392
REMARK  160  A    between atoms: _392  and  _393
REMARK  161  A    between atoms: _392  and  _395
REMARK  162  A    between atoms: _395  and  _396
REMARK  163  A    between atoms: _396  and  _397
REMARK  164  A    between atoms: _399  and  _401
REMARK  165  A    between atoms: _401  and  _402
REMARK  166  A    between atoms: _401  and  _404
REMARK  167  A    between atoms: _404  and  _405
REMARK  168  A    between atoms: _408  and  _410
REMARK  169  A    between atoms: _410  and  _411
REMARK  170  A    between atoms: _413  and  _415
REMARK  171  A    between atoms: _415  and  _416
REMARK  172  A    between atoms: _418  and  _420
REMARK  173  A    between atoms: _420  and  _421
REMARK  174  A    between atoms: _420  and  _423
REMARK  175  A    between atoms: _423  and  _424
REMARK  176  A    between atoms: _427  and  _429
REMARK  177  A    between atoms: _429  and  _430
REMARK  178  A    between atoms: _432  and  _434
REMARK  179  A    between atoms: _434  and  _435
REMARK  180  A    between atoms: _437  and  _439
REMARK  181  A    between atoms: _439  and  _440
REMARK  182  A    between atoms: _439  and  _442
REMARK  183  A    between atoms: _442  and  _443
REMARK  184  A    between atoms: _449  and  _451
REMARK  185  A    between atoms: _451  and  _452
REMARK  186  A    between atoms: _451  and  _454
REMARK  187  A    between atoms: _454  and  _455
REMARK  188  A    between atoms: _458  and  _460
REMARK  189  A    between atoms: _460  and  _461
REMARK  190  A    between atoms: _460  and  _463
REMARK  191  A    between atoms: _466  and  _468
REMARK  192  A    between atoms: _468  and  _469
REMARK  193  A    between atoms: _468  and  _471
REMARK  194  A    between atoms: _471  and  _472
REMARK  195  A    between atoms: _476  and  _477
REMARK  196  A    between atoms: _482  and  _484
REMARK  197  A    between atoms: _484  and  _485
REMARK  198  A    between atoms: _484  and  _487
REMARK  199  A    between atoms: _487  and  _488
REMARK  200  A    between atoms: _492  and  _493
REMARK  201  A    between atoms: _498  and  _500
REMARK  202  A    between atoms: _500  and  _501
REMARK  203  A    between atoms: _500  and  _503
REMARK  204  A    between atoms: _506  and  _508
REMARK  205  A    between atoms: _508  and  _509
REMARK  206  A    between atoms: _508  and  _511
REMARK  207  A    between atoms: _511  and  _512
REMARK  208  A    between atoms: _517  and  _519
REMARK  209  A    between atoms: _519  and  _520
REMARK  210  A    between atoms: _519  and  _522
REMARK  211  A    between atoms: _522  and  _523
REMARK  212  A    between atoms: _526  and  _528
REMARK  213  A    between atoms: _528  and  _529
REMARK  214  A    between atoms: _528  and  _531
REMARK  215  A    between atoms: _531  and  _532
REMARK  216  A    between atoms: _535  and  _537
REMARK  217  A    between atoms: _537  and  _538
REMARK  218  A    between atoms: _540  and  _542
REMARK  219  A    between atoms: _542  and  _543
REMARK  220  A    between atoms: _542  and  _545
REMARK  221  A    between atoms: _545  and  _546
REMARK  222  A    between atoms: _546  and  _547
REMARK  223  A    between atoms: _547  and  _548
REMARK  224  A    between atoms: _557  and  _559
REMARK  225  A    between atoms: _559  and  _560
REMARK  226  A    between atoms: _559  and  _562
REMARK  227  A    between atoms: _562  and  _563
REMARK                            x       y       z     vdW  Elec       q    Type
REMARK                         _______ _______ _______ _____ _____    ______ ____
ROOT
ATOM      1  NE  ARG A   1      19.002  19.980  11.193  0.00  0.00    -0.265 N 
ATOM      2  HE  ARG A   1      19.791  20.518  11.604  0.00  0.00    +0.259 HD
ATOM      3  CZ  ARG A   1      18.944  19.897   9.865  0.00  0.00    +0.342 C 
ATOM      4  NH2 ARG A   1      17.968  19.210   9.262  0.00  0.00    -0.292 N 
ATOM      5 HH21 ARG A   1      17.241  18.731   9.831  0.00  0.00    +0.255 HD
ATOM      6 HH22 ARG A   1      17.936  19.154   8.224  0.00  0.00    +0.255 HD
ATOM      7  NH1 ARG A   1      19.856  20.521   9.126  0.00  0.00    -0.292 N 
ATOM      8 HH11 ARG A   1      20.610  21.071   9.585  0.00  0.00    +0.255 HD
ATOM      9 HH12 ARG A   1      19.815  20.460   8.089  0.00  0.00    +0.255 HD
ENDROOT
BRANCH   1  10
ATOM     10  CD  ARG A   1      18.047  19.376  12.119  0.00  0.00    +0.174 C 
BRANCH  10  11
ATOM     11  CG  ARG A   1      18.721  19.031  13.421  0.00  0.00    +0.045 C 
BRANCH  11  12
ATOM     12  CB  ARG A   1      17.779  18.456  14.458  0.00  0.00    +0.029 C 
BRANCH  12  13
ATOM     13  CA  ARG A   1      18.535  17.932  15.672  0.00  0.00    +0.133 C 
BRANCH  13  14
ATOM     14  N   ARG A   1      19.275  16.704  15.320  0.00  0.00    -0.239 NA
ATOM     15  H   ARG A   1      19.268  16.366  14.337  0.00  0.00    +0.142 HD
ENDBRANCH  13  14
BRANCH  13  16
ATOM     16  C   ARG A   1      17.538  17.629  16.785  0.00  0.00    +0.224 C 
ATOM     17  O   ARG A   1      16.806  16.618  16.716  0.00  0.00    -0.287 OA
ENDBRANCH  13  16
ENDBRANCH  12  13
ENDBRANCH  11  12
ENDBRANCH  10  11
ENDBRANCH   1  10
TORSDOF 6
REMARK  Name = ../refined-set-2016/4djo/4djo_pocket.pdb
REMARK  227 active torsions:
REMARK  status: ('A' for Active; 'I' for Inactive)
REMARK    1  A    between atoms: _1  and  _3
REMARK    2  A    between atoms: _3  and  _4
REMARK    3  A    between atoms: _3  and  _6
REMARK    4  A    between atoms: _6  and  _7
REMARK    5  A    between atoms: _7  and  _8
REMARK    6  A    between atoms: _8  and  _9
REMARK    7  A    between atoms: _18  and  _20
REMARK    8  A    between atoms: _20  and  _21
REMARK    9  A    between atoms: _20  and  _23
REMARK   10  A    between atoms: _23  and  _24
REMARK   11  A    between atoms: _27  and  _29
REMARK   12  A    between atoms: _29  and  _30
REMARK   13  A    between atoms: _29  and  _32
REMARK   14  A    between atoms: _32  and  _33
REMARK   15  A    between atoms: _36  and  _38
REMARK   16  A    between atoms: _38  and  _39
REMARK   17  A    between atoms: _38  and  _41
REMARK   18  A    between atoms: _41  and  _42
REMARK   19  A    between atoms: _45  and  _47
REMARK   20  A    between atoms: _47  and  _48
REMARK   21  A    between atoms: _47  and  _50
REMARK   22  A    between atoms: _50  and  _51
REMARK   23  A    between atoms: _54  and  _56
REMARK   24  A    between atoms: _56  and  _57
REMARK   25  A    between atoms: _59  and  _61
REMARK   26  A    between atoms: _61  and  _62
REMARK   27  A    between atoms: _65  and  _67
REMARK   28  A    between atoms: _67  and  _68
REMARK   29  A    between atoms: _67  and  _70
REMARK   30  A    between atoms: _70  and  _71
REMARK   31  A    between atoms: _74  and  _76
REMARK   32  A    between atoms: _76  and  _77
REMARK   33  A    between atoms: _76  and  _79
REMARK   34  A    between atoms: _79  and  _80
REMARK   35  A    between atoms: _83  and  _85
REMARK   36  A    between atoms: _85  and  _86
REMARK   37  A    between atoms: _85  and  _88
REMARK   38  A    between atoms: _88  and  _89
REMARK   39  A    between atoms: _92  and  _94
REMARK   40  A    between atoms: _94  and  _95
REMARK   41  A    between atoms: _94  and  _97
REMARK   42  A    between atoms: _100  and  _102
REMARK   43  A    between atoms: _102  and  _103
REMARK   44  A    between atoms: _102  and  _105
REMARK   45  A    between atoms: _105  and  _106
REMARK   46  A    between atoms: _106  and  _107
REMARK   47  A    between atoms: _109  and  _111
REMARK   48  A    between atoms: _111  and  _112
REMARK   49  A    between atoms: _111  and  _114
REMARK   50  A    between atoms: _114  and  _115
REMARK   51  A    between atoms: _118  and  _120
REMARK   52  A    between atoms: _120  and  _121
REMARK   53  A    between atoms: _123  and  _125
REMARK   54  A    between atoms: _125  and  _126
REMARK   55  A    between atoms: _128  and  _130
REMARK   56  A    between atoms: _130  and  _131
REMARK   57  A    between atoms: _130  and  _133
REMARK   58  A    between atoms: _133  and  _134
REMARK   59  A    between atoms: _137  and  _139
REMARK   60  A    between atoms: _139  and  _140
REMARK   61  A    between atoms: _142  and  _144
REMARK   62  A    between atoms: _144  and  _145
REMARK   63  A    between atoms: _147  and  _149
REMARK   64  A    between atoms: _149  and  _150
REMARK   65  A    between atoms: _149  and  _152
REMARK   66  A    between atoms: _152  and  _153
REMARK   67  A    between atoms: _159  and  _161
REMARK   68  A    between atoms: _161  and  _162
REMARK   69  A    between atoms: _161  and  _164
REMARK   70  A    between atoms: _164  and  _165
REMARK   71  A    between atoms: _168  and  _170
REMARK   72  A    between atoms: _170  and  _171
REMARK   73  A    between atoms: _170  and  _173
REMARK   74  A    between atoms: _176  and  _178
REMARK   75  A    between atoms: _178  and  _179
REMARK   76  A    between atoms: _178  and  _181
REMARK   77  A    between atoms: _181  and  _182
REMARK   78  A    between atoms: _186  and  _187
REMARK   79  A    between atoms: _192  and  _194
REMARK   80  A    between atoms: _194  and  _195
REMARK   81  A    between atoms: _194  and  _197
REMARK   82  A    between atoms: _197  and  _198
REMARK   83  A    between atoms: _202  and  _203
REMARK   84  A    between atoms: _208  and  _210
REMARK   85  A    between atoms: _210  and  _211
REMARK   86  A    between atoms: _210  and  _213
REMARK   87  A    between atoms: _216  and  _218
REMARK   88  A    between atoms: _218  and  _219
REMARK   89  A    between atoms: _218  and  _221
REMARK   90  A    between atoms: _221  and  _222
REMARK   91  A    between atoms: _227  and  _229
REMARK   92  A    between atoms: _229  and  _230
REMARK   93  A    between atoms: _229  and  _232
REMARK   94  A    between atoms: _232  and  _233
REMARK   95  A    between atoms: _236  and  _238
REMARK   96  A    between atoms: _238  and  _239
REMARK   97  A    between atoms: _238  and  _241
REMARK   98  A    between atoms: _241  and  _242
REMARK   99  A    between atoms: _245  and  _247
REMARK  100  A    between atoms: _247  and  _248
REMARK  101  A    between atoms: _250  and  _252
REMARK  102  A    between atoms: _252  and  _253
REMARK  103  A    between atoms: _252  and  _255
REMARK  104  A    between atoms: _255  and  _256
REMARK  105  A    between atoms: _256  and  _257
REMARK  106  A    between atoms: _257  and  _258
REMARK  107  A    between atoms: _267  and  _269
REMARK  108  A    between atoms: _269  and  _270
REMARK  109  A    between atoms: _269  and  _272
REMARK  110  A    between atoms: _272  and  _273
REMARK  111  A    between atoms: _278  and  _280
REMARK  112  A    between atoms: _280  and  _281
REMARK  113  A    between atoms: _280  and  _283
REMARK  114  A    between atoms: _283  and  _284
REMARK  115  A    between atoms: _284  and  _285
REMARK  116  A    between atoms: _285  and  _286
REMARK  117  A    between atoms: _295  and  _297
REMARK  118  A    between atoms: _297  and  _298
REMARK  119  A    between atoms: _297  and  _300
REMARK  120  A    between atoms: _300  and  _301
REMARK  121  A    between atoms: _304  and  _306
REMARK  122  A    between atoms: _306  and  _307
REMARK  123  A    between atoms: _306  and  _309
REMARK  124  A    between atoms: _309  and  _310
REMARK  125  A    between atoms: _313  and  _315
REMARK  126  A    between atoms: _315  and  _316
REMARK  127  A    between atoms: _315  and  _318
REMARK  128  A    between atoms: _318  and  _319
REMARK  129  A    between atoms: _322  and  _324
REMARK  130  A    between atoms: _324  and  _325
REMARK  131  A    between atoms: _324  and  _327
REMARK  132  A    between atoms: _327  and  _328
REMARK  133  A    between atoms: _331  and  _333
REMARK  134  A    between atoms: _333  and  _334
REMARK  135  A    between atoms: _336  and  _338
REMARK  136  A    between atoms: _338  and  _339
REMARK  137  A    between atoms: _342  and  _344
REMARK  138  A    between atoms: _344  and  _345
REMARK  139  A    between atoms: _344  and  _347
REMARK  140  A    between atoms: _347  and  _348
REMARK  141  A    between atoms: _351  and  _353
REMARK  142  A    between atoms: _353  and  _354
REMARK  143  A    between atoms: _353  and  _356
REMARK  144  A    between atoms: _356  and  _357
REMARK  145  A    between atoms: _360  and  _362
REMARK  146  A    between atoms: _362  and  _363
REMARK  147  A    between atoms: _362  and  _365
REMARK  148  A    between atoms: _365  and  _366
REMARK  149  A    between atoms: _369  and  _371
REMARK  150  A    between atoms: _371  and  _372
REMARK  151  A    between atoms: _371  and  _374
REMARK  152  A    between atoms: _377  and  _379
REMARK  153  A    between atoms: _379  and  _380
REMARK  154  A    between atoms: _379  and  _382
REMARK  155  A    between atoms: _382  and  _383
REMARK  156  A    between atoms: _383  and  _384
REMARK  157  A    between atoms: _384  and  _385
REMARK  158  A    between atoms: _385  and  _386
REMARK  159  A    between atoms: _390  and  _392
REMARK  160  A    between atoms: _392  and  _393
REMARK  161  A    between atoms: _392  and  _395
REMARK  162  A    between atoms: _395  and  _396
REMARK  163  A    between atoms: _396  and  _397
REMARK  164  A    between atoms: _399  and  _401
REMARK  165  A    between atoms: _401  and  _402
REMARK  166  A    between atoms: _401  and  _404
REMARK  167  A    between atoms: _404  and  _405
REMARK  168  A    between atoms: _408  and  _410
REMARK  169  A    between atoms: _410  and  _411
REMARK  170  A    between atoms: _413  and  _415
REMARK  171  A    between atoms: _415  and  _416
REMARK  172  A    between atoms: _418  and  _420
REMARK  173  A    between atoms: _420  and  _421
REMARK  174  A    between atoms: _420  and  _423
REMARK  175  A    between atoms: _423  and  _424
REMARK  176  A    between atoms: _427  and  _429
REMARK  177  A    between atoms: _429  and  _430
REMARK  178  A    between atoms: _432  and  _434
REMARK  179  A    between atoms: _434  and  _435
REMARK  180  A    between atoms: _437  and  _439
REMARK  181  A    between atoms: _439  and  _440
REMARK  182  A    between atoms: _439  and  _442
REMARK  183  A    between atoms: _442  and  _443
REMARK  184  A    between atoms: _449  and  _451
REMARK  185  A    between atoms: _451  and  _452
REMARK  186  A    between atoms: _451  and  _454
REMARK  187  A    between atoms: _454  and  _455
REMARK  188  A    between atoms: _458  and  _460
REMARK  189  A    between atoms: _460  and  _461
REMARK  190  A    between atoms: _460  and  _463
REMARK  191  A    between atoms: _466  and  _468
REMARK  192  A    between atoms: _468  and  _469
REMARK  193  A    between atoms: _468  and  _471
REMARK  194  A    between atoms: _471  and  _472
REMARK  195  A    between atoms: _476  and  _477
REMARK  196  A    between atoms: _482  and  _484
REMARK  197  A    between atoms: _484  and  _485
REMARK  198  A    between atoms: _484  and  _487
REMARK  199  A    between atoms: _487  and  _488
REMARK  200  A    between atoms: _492  and  _493
REMARK  201  A    between atoms: _498  and  _500
REMARK  202  A    between atoms: _500  and  _501
REMARK  203  A    between atoms: _500  and  _503
REMARK  204  A    between atoms: _506  and  _508
REMARK  205  A    between atoms: _508  and  _509
REMARK  206  A    between atoms: _508  and  _511
REMARK  207  A    between atoms: _511  and  _512
REMARK  208  A    between atoms: _517  and  _519
REMARK  209  A    between atoms: _519  and  _520
REMARK  210  A    between atoms: _519  and  _522
REMARK  211  A    between atoms: _522  and  _523
REMARK  212  A    between atoms: _526  and  _528
REMARK  213  A    between atoms: _528  and  _529
REMARK  214  A    between atoms: _528  and  _531
REMARK  215  A    between atoms: _531  and  _532
REMARK  216  A    between atoms: _535  and  _537
REMARK  217  A    between atoms: _537  and  _538
REMARK  218  A    between atoms: _540  and  _542
REMARK  219  A    between atoms: _542  and  _543
REMARK  220  A    between atoms: _542  and  _545
REMARK  221  A    between atoms: _545  and  _546
REMARK  222  A    between atoms: _546  and  _547
REMARK  223  A    between atoms: _547  and  _548
REMARK  224  A    between atoms: _557  and  _559
REMARK  225  A    between atoms: _559  and  _560
REMARK  226  A    between atoms: _559  and  _562
REMARK  227  A    between atoms: _562  and  _563
REMARK                            x       y       z     vdW  Elec       q    Type
REMARK                         _______ _______ _______ _____ _____    ______ ____
ROOT
ATOM      1  C   GLY A   5      19.684  30.899  20.267  0.00  0.00    +0.243 C 
ATOM      2  N   ALA A   6      18.403  30.596  20.448  0.00  0.00    -0.297 N 
ATOM      3  H   ALA A   6      18.172  29.669  20.858  0.00  0.00    +0.150 HD
ATOM      4  O   GLY A   5      20.080  31.974  19.835  0.00  0.00    -0.273 OA
ENDROOT
BRANCH   2   5
ATOM      5  CA  ALA A   6      17.304  31.489  20.104  0.00  0.00    +0.149 C 
ATOM      6  CB  ALA A   6      16.178  30.698  19.439  0.00  0.00    +0.031 C 
BRANCH   5   7
ATOM      7  C   ALA A   6      16.753  32.207  21.322  0.00  0.00    +0.241 C 
ATOM      8  O   ALA A   6      16.214  31.561  22.234  0.00  0.00    -0.273 OA
ATOM      9  N   ASP A   7      16.815  33.538  21.324  0.00  0.00    -0.297 N 
ATOM     10  H   ASP A   7      17.285  34.033  20.540  0.00  0.00    +0.150 HD
BRANCH   9  11
ATOM     11  CA  ASP A   7      16.223  34.315  22.429  0.00  0.00    +0.160 C 
BRANCH  11  12
ATOM     12  C   ASP A   7      14.721  34.147  22.508  0.00  0.00    +0.241 C 
ATOM     13  O   ASP A   7      14.142  34.034  23.600  0.00  0.00    -0.273 OA
ATOM     14  N   ASP A   8      14.109  34.186  21.328  0.00  0.00    -0.297 N 
ATOM     15  H   ASP A   8      14.705  34.270  20.480  0.00  0.00    +0.150 HD
BRANCH  14  16
ATOM     16  CA  ASP A   8      12.672  34.120  21.133  0.00  0.00    +0.160 C 
BRANCH  16  17
ATOM     17  C   ASP A   8      12.263  32.872  20.339  0.00  0.00    +0.241 C 
ATOM     18  N   THR A   9      10.981  32.573  20.415  0.00  0.00    -0.295 N 
ATOM     19  H   THR A   9      10.378  33.175  21.011  0.00  0.00    +0.150 HD
ATOM     20  O   ASP A   8      13.066  32.207  19.674  0.00  0.00    -0.273 OA
BRANCH  18  21
ATOM     21  CA  THR A   9      10.357  31.466  19.727  0.00  0.00    +0.176 C 
BRANCH  21  22
ATOM     22  C   THR A   9       9.821  31.927  18.358  0.00  0.00    +0.243 C 
ATOM     23  O   THR A   9       9.103  32.932  18.256  0.00  0.00    -0.273 OA
ATOM     24  N   VAL A  10      10.162  31.186  17.308  0.00  0.00    -0.298 N 
ATOM     25  H   VAL A  10      10.677  30.296  17.465  0.00  0.00    +0.150 HD
BRANCH  24  26
ATOM     26  CA  VAL A  10       9.833  31.587  15.932  0.00  0.00    +0.137 C 
BRANCH  26  27
ATOM     27  CB  VAL A  10      11.062  32.043  15.127  0.00  0.00    +0.026 C 
ATOM     28  CG2 VAL A  10      11.977  32.937  15.986  0.00  0.00    +0.002 C 
ATOM     29  CG1 VAL A  10      10.608  32.761  13.810  0.00  0.00    +0.002 C 
ENDBRANCH  26  27
BRANCH  26  30
ATOM     30  C   VAL A  10       9.205  30.426  15.202  0.00  0.00    +0.227 C 
ATOM     31  O   VAL A  10       9.849  29.388  14.998  0.00  0.00    -0.286 OA
ENDBRANCH  26  30
ENDBRANCH  24  26
ENDBRANCH  21  22
BRANCH  21  32
ATOM     32  CB  THR A   9       9.204  30.892  20.611  0.00  0.00    +0.137 C 
ATOM     33  CG2 THR A   9       8.381  29.858  19.863  0.00  0.00    +0.034 C 
BRANCH  32  34
ATOM     34  OG1 THR A   9       9.768  30.299  21.786  0.00  0.00    -0.382 OA
ATOM     35  HG1 THR A   9      10.268  30.986  22.294  0.00  0.00    +0.210 HD
ENDBRANCH  32  34
ENDBRANCH  21  32
ENDBRANCH  18  21
ENDBRANCH  16  17
BRANCH  16  36
ATOM     36  CB  ASP A   8      12.181  35.365  20.381  0.00  0.00    +0.143 C 
BRANCH  36  37
ATOM     37  CG  ASP A   8      12.493  36.679  21.112  0.00  0.00    +0.367 C 
ATOM     38  OD2 ASP A   8      12.821  36.680  22.313  0.00  0.00    -0.246 OA
ATOM     39  OD1 ASP A   8      12.393  37.740  20.458  0.00  0.00    -0.246 OA
ENDBRANCH  36  37
ENDBRANCH  16  36
ENDBRANCH  14  16
ENDBRANCH  11  12
BRANCH  11  40
ATOM     40  CB  ASP A   7      16.464  35.815  22.263  0.00  0.00    +0.143 C 
BRANCH  40  41
ATOM     41  CG  ASP A   7      17.933  36.209  22.307  0.00  0.00    +0.367 C 
ATOM     42  OD2 ASP A   7      18.791  35.448  22.803  0.00  0.00    -0.246 OA
ATOM     43  OD1 ASP A   7      18.216  37.340  21.856  0.00  0.00    -0.246 OA
ENDBRANCH  40  41
ENDBRANCH  11  40
ENDBRANCH   9  11
ENDBRANCH   5   7
ENDBRANCH   2   5
BRANCH   1  44
ATOM     44  CA  GLY A   5      20.688  29.816  20.616  0.00  0.00    +0.176 C 
BRANCH  44  47
ATOM     45  C   THR A   4      19.900  28.680  22.616  0.00  0.00    +0.243 C 
ATOM     46  O   THR A   4      20.190  29.634  23.340  0.00  0.00    -0.273 OA
ATOM     47  N   GLY A   5      20.094  28.680  21.293  0.00  0.00    -0.295 N 
ATOM     48  H   GLY A   5      19.813  27.847  20.738  0.00  0.00    +0.150 HD
BRANCH  45  49
ATOM     49  CA  THR A   4      19.259  27.437  23.211  0.00  0.00    +0.176 C 
BRANCH  49  51
ATOM     50  C   ASP A   3      17.533  26.971  21.532  0.00  0.00    +0.241 C 
ATOM     51  N   THR A   4      18.616  26.594  22.203  0.00  0.00    -0.295 N 
ATOM     52  H   THR A   4      19.024  25.659  22.003  0.00  0.00    +0.150 HD
ATOM     53  O   ASP A   3      17.006  28.063  21.676  0.00  0.00    -0.273 OA
BRANCH  50  54
ATOM     54  CA  ASP A   3      17.002  25.966  20.505  0.00  0.00    +0.160 C 
BRANCH  54  56
ATOM     55  C   LEU A   2      15.955  23.824  20.970  0.00  0.00    +0.241 C 
ATOM     56  N   ASP A   3      15.896  25.152  20.983  0.00  0.00    -0.297 N 
ATOM     57  H   ASP A   3      15.040  25.619  21.343  0.00  0.00    +0.150 HD
ATOM     58  O   LEU A   2      17.002  23.182  20.834  0.00  0.00    -0.273 OA
BRANCH  55  59
ATOM     59  CA  LEU A   2      14.646  23.083  21.137  0.00  0.00    +0.149 C 
BRANCH  59  61
ATOM     60  C   LEU A   1      13.788  23.205  18.870  0.00  0.00    +0.238 C 
ATOM     61  N   LEU A   2      14.356  22.485  19.834  0.00  0.00    -0.297 N 
ATOM     62  H   LEU A   2      14.596  21.488  19.660  0.00  0.00    +0.150 HD
ATOM     63  O   LEU A   1      13.336  24.331  19.046  0.00  0.00    -0.274 OA
BRANCH  60  64
ATOM     64  CA  LEU A   1      13.759  22.615  17.485  0.00  0.00    +0.145 C 
BRANCH  64  65
ATOM     65  N   LEU A   1      12.416  22.769  16.933  0.00  0.00    -0.238 NA
ATOM     66  H   LEU A   1      12.234  23.572  16.297  0.00  0.00    +0.142 HD
ENDBRANCH  64  65
BRANCH  64  67
ATOM     67  CB  LEU A   1      14.751  23.470  16.693  0.00  0.00    +0.026 C 
BRANCH  67  68
ATOM     68  CG  LEU A   1      15.423  22.959  15.442  0.00  0.00    +0.002 C 
ATOM     69  CD2 LEU A   1      16.245  21.711  15.745  0.00  0.00    +0.000 C 
ATOM     70  CD1 LEU A   1      16.279  24.079  14.854  0.00  0.00    +0.000 C 
ENDBRANCH  67  68
ENDBRANCH  64  67
ENDBRANCH  60  64
ENDBRANCH  59  61
BRANCH  59  71
ATOM     71  CB  LEU A   2      14.785  22.019  22.222  0.00  0.00    +0.029 C 
BRANCH  71  72
ATOM     72  CG  LEU A   2      13.541  21.159  22.429  0.00  0.00    +0.002 C 
ATOM     73  CD2 LEU A   2      13.899  20.014  23.374  0.00  0.00    +0.000 C 
ATOM     74  CD1 LEU A   2      12.312  21.949  22.946  0.00  0.00    +0.000 C 
ENDBRANCH  71  72
ENDBRANCH  59  71
ENDBRANCH  55  59
ENDBRANCH  54  56
BRANCH  54  75
ATOM     75  CB  ASP A   3      16.574  26.690  19.223  0.00  0.00    +0.143 C 
BRANCH  75  76
ATOM     76  CG  ASP A   3      17.740  27.346  18.520  0.00  0.00    +0.367 C 
ATOM     77  OD2 ASP A   3      18.859  27.310  19.078  0.00  0.00    -0.246 OA
ATOM     78  OD1 ASP A   3      17.551  27.883  17.414  0.00  0.00    -0.246 OA
ENDBRANCH  75  76
ENDBRANCH  54  75
ENDBRANCH  50  54
ENDBRANCH  49  51
BRANCH  49  79
ATOM     79  CB  THR A   4      20.327  26.645  23.983  0.00  0.00    +0.137 C 
ATOM     80  CG2 THR A   4      19.675  25.476  24.737  0.00  0.00    +0.034 C 
BRANCH  79  81
ATOM     81  OG1 THR A   4      21.330  26.157  23.077  0.00  0.00    -0.382 OA
ATOM     82  HG1 THR A   4      21.760  26.922  22.619  0.00  0.00    +0.210 HD
ENDBRANCH  79  81
ENDBRANCH  49  79
ENDBRANCH  45  49
ENDBRANCH  44  47
ENDBRANCH   1  44
TORSDOF 35
REMARK  Name = ../refined-set-2016/4djo/4djo_pocket.pdb
REMARK  227 active torsions:
REMARK  status: ('A' for Active; 'I' for Inactive)
REMARK    1  A    between atoms: _1  and  _3
REMARK    2  A    between atoms: _3  and  _4
REMARK    3  A    between atoms: _3  and  _6
REMARK    4  A    between atoms: _6  and  _7
REMARK    5  A    between atoms: _7  and  _8
REMARK    6  A    between atoms: _8  and  _9
REMARK    7  A    between atoms: _18  and  _20
REMARK    8  A    between atoms: _20  and  _21
REMARK    9  A    between atoms: _20  and  _23
REMARK   10  A    between atoms: _23  and  _24
REMARK   11  A    between atoms: _27  and  _29
REMARK   12  A    between atoms: _29  and  _30
REMARK   13  A    between atoms: _29  and  _32
REMARK   14  A    between atoms: _32  and  _33
REMARK   15  A    between atoms: _36  and  _38
REMARK   16  A    between atoms: _38  and  _39
REMARK   17  A    between atoms: _38  and  _41
REMARK   18  A    between atoms: _41  and  _42
REMARK   19  A    between atoms: _45  and  _47
REMARK   20  A    between atoms: _47  and  _48
REMARK   21  A    between atoms: _47  and  _50
REMARK   22  A    between atoms: _50  and  _51
REMARK   23  A    between atoms: _54  and  _56
REMARK   24  A    between atoms: _56  and  _57
REMARK   25  A    between atoms: _59  and  _61
REMARK   26  A    between atoms: _61  and  _62
REMARK   27  A    between atoms: _65  and  _67
REMARK   28  A    between atoms: _67  and  _68
REMARK   29  A    between atoms: _67  and  _70
REMARK   30  A    between atoms: _70  and  _71
REMARK   31  A    between atoms: _74  and  _76
REMARK   32  A    between atoms: _76  and  _77
REMARK   33  A    between atoms: _76  and  _79
REMARK   34  A    between atoms: _79  and  _80
REMARK   35  A    between atoms: _83  and  _85
REMARK   36  A    between atoms: _85  and  _86
REMARK   37  A    between atoms: _85  and  _88
REMARK   38  A    between atoms: _88  and  _89
REMARK   39  A    between atoms: _92  and  _94
REMARK   40  A    between atoms: _94  and  _95
REMARK   41  A    between atoms: _94  and  _97
REMARK   42  A    between atoms: _100  and  _102
REMARK   43  A    between atoms: _102  and  _103
REMARK   44  A    between atoms: _102  and  _105
REMARK   45  A    between atoms: _105  and  _106
REMARK   46  A    between atoms: _106  and  _107
REMARK   47  A    between atoms: _109  and  _111
REMARK   48  A    between atoms: _111  and  _112
REMARK   49  A    between atoms: _111  and  _114
REMARK   50  A    between atoms: _114  and  _115
REMARK   51  A    between atoms: _118  and  _120
REMARK   52  A    between atoms: _120  and  _121
REMARK   53  A    between atoms: _123  and  _125
REMARK   54  A    between atoms: _125  and  _126
REMARK   55  A    between atoms: _128  and  _130
REMARK   56  A    between atoms: _130  and  _131
REMARK   57  A    between atoms: _130  and  _133
REMARK   58  A    between atoms: _133  and  _134
REMARK   59  A    between atoms: _137  and  _139
REMARK   60  A    between atoms: _139  and  _140
REMARK   61  A    between atoms: _142  and  _144
REMARK   62  A    between atoms: _144  and  _145
REMARK   63  A    between atoms: _147  and  _149
REMARK   64  A    between atoms: _149  and  _150
REMARK   65  A    between atoms: _149  and  _152
REMARK   66  A    between atoms: _152  and  _153
REMARK   67  A    between atoms: _159  and  _161
REMARK   68  A    between atoms: _161  and  _162
REMARK   69  A    between atoms: _161  and  _164
REMARK   70  A    between atoms: _164  and  _165
REMARK   71  A    between atoms: _168  and  _170
REMARK   72  A    between atoms: _170  and  _171
REMARK   73  A    between atoms: _170  and  _173
REMARK   74  A    between atoms: _176  and  _178
REMARK   75  A    between atoms: _178  and  _179
REMARK   76  A    between atoms: _178  and  _181
REMARK   77  A    between atoms: _181  and  _182
REMARK   78  A    between atoms: _186  and  _187
REMARK   79  A    between atoms: _192  and  _194
REMARK   80  A    between atoms: _194  and  _195
REMARK   81  A    between atoms: _194  and  _197
REMARK   82  A    between atoms: _197  and  _198
REMARK   83  A    between atoms: _202  and  _203
REMARK   84  A    between atoms: _208  and  _210
REMARK   85  A    between atoms: _210  and  _211
REMARK   86  A    between atoms: _210  and  _213
REMARK   87  A    between atoms: _216  and  _218
REMARK   88  A    between atoms: _218  and  _219
REMARK   89  A    between atoms: _218  and  _221
REMARK   90  A    between atoms: _221  and  _222
REMARK   91  A    between atoms: _227  and  _229
REMARK   92  A    between atoms: _229  and  _230
REMARK   93  A    between atoms: _229  and  _232
REMARK   94  A    between atoms: _232  and  _233
REMARK   95  A    between atoms: _236  and  _238
REMARK   96  A    between atoms: _238  and  _239
REMARK   97  A    between atoms: _238  and  _241
REMARK   98  A    between atoms: _241  and  _242
REMARK   99  A    between atoms: _245  and  _247
REMARK  100  A    between atoms: _247  and  _248
REMARK  101  A    between atoms: _250  and  _252
REMARK  102  A    between atoms: _252  and  _253
REMARK  103  A    between atoms: _252  and  _255
REMARK  104  A    between atoms: _255  and  _256
REMARK  105  A    between atoms: _256  and  _257
REMARK  106  A    between atoms: _257  and  _258
REMARK  107  A    between atoms: _267  and  _269
REMARK  108  A    between atoms: _269  and  _270
REMARK  109  A    between atoms: _269  and  _272
REMARK  110  A    between atoms: _272  and  _273
REMARK  111  A    between atoms: _278  and  _280
REMARK  112  A    between atoms: _280  and  _281
REMARK  113  A    between atoms: _280  and  _283
REMARK  114  A    between atoms: _283  and  _284
REMARK  115  A    between atoms: _284  and  _285
REMARK  116  A    between atoms: _285  and  _286
REMARK  117  A    between atoms: _295  and  _297
REMARK  118  A    between atoms: _297  and  _298
REMARK  119  A    between atoms: _297  and  _300
REMARK  120  A    between atoms: _300  and  _301
REMARK  121  A    between atoms: _304  and  _306
REMARK  122  A    between atoms: _306  and  _307
REMARK  123  A    between atoms: _306  and  _309
REMARK  124  A    between atoms: _309  and  _310
REMARK  125  A    between atoms: _313  and  _315
REMARK  126  A    between atoms: _315  and  _316
REMARK  127  A    between atoms: _315  and  _318
REMARK  128  A    between atoms: _318  and  _319
REMARK  129  A    between atoms: _322  and  _324
REMARK  130  A    between atoms: _324  and  _325
REMARK  131  A    between atoms: _324  and  _327
REMARK  132  A    between atoms: _327  and  _328
REMARK  133  A    between atoms: _331  and  _333
REMARK  134  A    between atoms: _333  and  _334
REMARK  135  A    between atoms: _336  and  _338
REMARK  136  A    between atoms: _338  and  _339
REMARK  137  A    between atoms: _342  and  _344
REMARK  138  A    between atoms: _344  and  _345
REMARK  139  A    between atoms: _344  and  _347
REMARK  140  A    between atoms: _347  and  _348
REMARK  141  A    between atoms: _351  and  _353
REMARK  142  A    between atoms: _353  and  _354
REMARK  143  A    between atoms: _353  and  _356
REMARK  144  A    between atoms: _356  and  _357
REMARK  145  A    between atoms: _360  and  _362
REMARK  146  A    between atoms: _362  and  _363
REMARK  147  A    between atoms: _362  and  _365
REMARK  148  A    between atoms: _365  and  _366
REMARK  149  A    between atoms: _369  and  _371
REMARK  150  A    between atoms: _371  and  _372
REMARK  151  A    between atoms: _371  and  _374
REMARK  152  A    between atoms: _377  and  _379
REMARK  153  A    between atoms: _379  and  _380
REMARK  154  A    between atoms: _379  and  _382
REMARK  155  A    between atoms: _382  and  _383
REMARK  156  A    between atoms: _383  and  _384
REMARK  157  A    between atoms: _384  and  _385
REMARK  158  A    between atoms: _385  and  _386
REMARK  159  A    between atoms: _390  and  _392
REMARK  160  A    between atoms: _392  and  _393
REMARK  161  A    between atoms: _392  and  _395
REMARK  162  A    between atoms: _395  and  _396
REMARK  163  A    between atoms: _396  and  _397
REMARK  164  A    between atoms: _399  and  _401
REMARK  165  A    between atoms: _401  and  _402
REMARK  166  A    between atoms: _401  and  _404
REMARK  167  A    between atoms: _404  and  _405
REMARK  168  A    between atoms: _408  and  _410
REMARK  169  A    between atoms: _410  and  _411
REMARK  170  A    between atoms: _413  and  _415
REMARK  171  A    between atoms: _415  and  _416
REMARK  172  A    between atoms: _418  and  _420
REMARK  173  A    between atoms: _420  and  _421
REMARK  174  A    between atoms: _420  and  _423
REMARK  175  A    between atoms: _423  and  _424
REMARK  176  A    between atoms: _427  and  _429
REMARK  177  A    between atoms: _429  and  _430
REMARK  178  A    between atoms: _432  and  _434
REMARK  179  A    between atoms: _434  and  _435
REMARK  180  A    between atoms: _437  and  _439
REMARK  181  A    between atoms: _439  and  _440
REMARK  182  A    between atoms: _439  and  _442
REMARK  183  A    between atoms: _442  and  _443
REMARK  184  A    between atoms: _449  and  _451
REMARK  185  A    between atoms: _451  and  _452
REMARK  186  A    between atoms: _451  and  _454
REMARK  187  A    between atoms: _454  and  _455
REMARK  188  A    between atoms: _458  and  _460
REMARK  189  A    between atoms: _460  and  _461
REMARK  190  A    between atoms: _460  and  _463
REMARK  191  A    between atoms: _466  and  _468
REMARK  192  A    between atoms: _468  and  _469
REMARK  193  A    between atoms: _468  and  _471
REMARK  194  A    between atoms: _471  and  _472
REMARK  195  A    between atoms: _476  and  _477
REMARK  196  A    between atoms: _482  and  _484
REMARK  197  A    between atoms: _484  and  _485
REMARK  198  A    between atoms: _484  and  _487
REMARK  199  A    between atoms: _487  and  _488
REMARK  200  A    between atoms: _492  and  _493
REMARK  201  A    between atoms: _498  and  _500
REMARK  202  A    between atoms: _500  and  _501
REMARK  203  A    between atoms: _500  and  _503
REMARK  204  A    between atoms: _506  and  _508
REMARK  205  A    between atoms: _508  and  _509
REMARK  206  A    between atoms: _508  and  _511
REMARK  207  A    between atoms: _511  and  _512
REMARK  208  A    between atoms: _517  and  _519
REMARK  209  A    between atoms: _519  and  _520
REMARK  210  A    between atoms: _519  and  _522
REMARK  211  A    between atoms: _522  and  _523
REMARK  212  A    between atoms: _526  and  _528
REMARK  213  A    between atoms: _528  and  _529
REMARK  214  A    between atoms: _528  and  _531
REMARK  215  A    between atoms: _531  and  _532
REMARK  216  A    between atoms: _535  and  _537
REMARK  217  A    between atoms: _537  and  _538
REMARK  218  A    between atoms: _540  and  _542
REMARK  219  A    between atoms: _542  and  _543
REMARK  220  A    between atoms: _542  and  _545
REMARK  221  A    between atoms: _545  and  _546
REMARK  222  A    between atoms: _546  and  _547
REMARK  223  A    between atoms: _547  and  _548
REMARK  224  A    between atoms: _557  and  _559
REMARK  225  A    between atoms: _559  and  _560
REMARK  226  A    between atoms: _559  and  _562
REMARK  227  A    between atoms: _562  and  _563
REMARK                            x       y       z     vdW  Elec       q    Type
REMARK                         _______ _______ _______ _____ _____    ______ ____
ROOT
ATOM      1  C   GLY A   5      21.462  35.507  11.026  0.00  0.00    +0.243 C 
ATOM      2  N   ILE A   6      22.011  34.309  10.847  0.00  0.00    -0.297 N 
ATOM      3  H   ILE A   6      21.830  33.547  11.531  0.00  0.00    +0.150 HD
ATOM      4  O   GLY A   5      21.693  36.457  10.282  0.00  0.00    -0.273 OA
ENDROOT
BRANCH   2   5
ATOM      5  CA  ILE A   6      22.859  34.065   9.703  0.00  0.00    +0.149 C 
BRANCH   5   6
ATOM      6  C   ILE A   6      22.037  34.306   8.434  0.00  0.00    +0.241 C 
ATOM      7  O   ILE A   6      20.931  33.788   8.286  0.00  0.00    -0.273 OA
ATOM      8  N   GLY A   7      22.592  35.083   7.512  0.00  0.00    -0.295 N 
ATOM      9  H   GLY A   7      23.562  35.429   7.653  0.00  0.00    +0.150 HD
BRANCH   8  10
ATOM     10  CA  GLY A   7      21.870  35.457   6.313  0.00  0.00    +0.176 C 
BRANCH  10  11
ATOM     11  C   GLY A   7      21.213  36.821   6.355  0.00  0.00    +0.243 C 
ATOM     12  N   GLY A   8      20.876  37.315   7.541  0.00  0.00    -0.295 N 
ATOM     13  H   GLY A   8      21.097  36.763   8.395  0.00  0.00    +0.150 HD
ATOM     14  O   GLY A   7      21.038  37.427   5.304  0.00  0.00    -0.273 OA
BRANCH  12  15
ATOM     15  CA  GLY A   8      20.204  38.610   7.691  0.00  0.00    +0.176 C 
BRANCH  15  16
ATOM     16  C   GLY A   8      18.917  38.496   8.477  0.00  0.00    +0.243 C 
ATOM     17  O   GLY A   8      18.761  37.592   9.306  0.00  0.00    -0.273 OA
ATOM     18  N   PHE A   9      18.001  39.421   8.220  0.00  0.00    -0.297 N 
ATOM     19  H   PHE A   9      18.145  40.058   7.411  0.00  0.00    +0.150 HD
BRANCH  18  20
ATOM     20  CA  PHE A   9      16.800  39.576   9.031  0.00  0.00    +0.153 C 
BRANCH  20  21
ATOM     21  C   PHE A   9      15.559  39.076   8.297  0.00  0.00    +0.241 C 
ATOM     22  N   ILE A  10      14.562  38.612   9.044  0.00  0.00    -0.298 N 
ATOM     23  H   ILE A  10      14.718  38.458  10.061  0.00  0.00    +0.150 HD
ATOM     24  O   PHE A   9      15.518  39.081   7.065  0.00  0.00    -0.273 OA
BRANCH  22  25
ATOM     25  CA  ILE A  10      13.250  38.313   8.470  0.00  0.00    +0.137 C 
BRANCH  25  26
ATOM     26  C   ILE A  10      12.183  39.103   9.232  0.00  0.00    +0.227 C 
ATOM     27  O   ILE A  10      12.369  39.450  10.403  0.00  0.00    -0.286 OA
ENDBRANCH  25  26
BRANCH  25  28
ATOM     28  CB  ILE A  10      12.893  36.800   8.466  0.00  0.00    +0.026 C 
ATOM     29  CG2 ILE A  10      13.839  36.031   7.529  0.00  0.00    +0.002 C 
BRANCH  28  30
ATOM     30  CG1 ILE A  10      12.909  36.210   9.876  0.00  0.00    +0.002 C 
ATOM     31  CD1 ILE A  10      12.231  34.847   9.999  0.00  0.00    +0.000 C 
ENDBRANCH  28  30
ENDBRANCH  25  28
ENDBRANCH  22  25
ENDBRANCH  20  21
BRANCH  20  32
ATOM     32  CB  PHE A   9      16.620  41.050   9.400  0.00  0.00    +0.055 C 
BRANCH  32  33
ATOM     33  CG  PHE A   9      17.450  41.483  10.561  0.00  0.00    -0.020 A 
ATOM     34  CD2 PHE A   9      16.866  41.711  11.804  0.00  0.00    -0.004 A 
ATOM     35  CE2 PHE A   9      17.643  42.111  12.865  0.00  0.00    -0.000 A 
ATOM     36  CZ  PHE A   9      19.014  42.307  12.691  0.00  0.00    -0.000 A 
ATOM     37  CE1 PHE A   9      19.592  42.091  11.459  0.00  0.00    -0.000 A 
ATOM     38  CD1 PHE A   9      18.819  41.691  10.409  0.00  0.00    -0.004 A 
ENDBRANCH  32  33
ENDBRANCH  20  32
ENDBRANCH  18  20
ENDBRANCH  15  16
ENDBRANCH  12  15
ENDBRANCH  10  11
ENDBRANCH   8  10
ENDBRANCH   5   6
BRANCH   5  39
ATOM     39  CB  ILE A   6      23.458  32.648   9.753  0.00  0.00    +0.027 C 
ATOM     40  CG2 ILE A   6      23.905  32.199   8.353  0.00  0.00    +0.002 C 
BRANCH  39  41
ATOM     41  CG1 ILE A   6      24.648  32.641  10.725  0.00  0.00    +0.002 C 
ATOM     42  CD1 ILE A   6      25.145  31.265  11.081  0.00  0.00    +0.000 C 
ENDBRANCH  39  41
ENDBRANCH   5  39
ENDBRANCH   2   5
BRANCH   1  43
ATOM     43  CA  GLY A   5      20.534  35.635  12.206  0.00  0.00    +0.176 C 
BRANCH  43  46
ATOM     44  C   GLY A   4      18.998  37.321  13.024  0.00  0.00    +0.243 C 
ATOM     45  O   GLY A   4      19.146  37.001  14.205  0.00  0.00    -0.273 OA
ATOM     46  N   GLY A   5      19.560  36.687  12.009  0.00  0.00    -0.295 N 
ATOM     47  H   GLY A   5      19.294  36.952  11.039  0.00  0.00    +0.150 HD
BRANCH  44  48
ATOM     48  CA  GLY A   4      18.188  38.531  12.634  0.00  0.00    +0.176 C 
BRANCH  48  50
ATOM     49  C   ILE A   3      15.812  38.802  12.916  0.00  0.00    +0.241 C 
ATOM     50  N   GLY A   4      17.020  38.732  13.460  0.00  0.00    -0.295 N 
ATOM     51  H   GLY A   4      17.127  38.823  14.490  0.00  0.00    +0.150 HD
ATOM     52  O   ILE A   3      15.581  38.555  11.731  0.00  0.00    -0.273 OA
BRANCH  49  53
ATOM     53  CA  ILE A   3      14.710  39.273  13.838  0.00  0.00    +0.149 C 
BRANCH  53  56
ATOM     54  C   MET A   2      13.330  41.240  13.468  0.00  0.00    +0.241 C 
ATOM     55  O   MET A   2      13.774  41.784  14.500  0.00  0.00    -0.273 OA
ATOM     56  N   ILE A   3      13.702  40.026  13.073  0.00  0.00    -0.297 N 
ATOM     57  H   ILE A   3      13.279  39.607  12.220  0.00  0.00    +0.150 HD
BRANCH  54  58
ATOM     58  CA  MET A   2      12.313  41.947  12.599  0.00  0.00    +0.149 C 
BRANCH  58  60
ATOM     59  C   LYS A   1      10.007  42.220  13.283  0.00  0.00    +0.238 C 
ATOM     60  N   MET A   2      11.288  42.540  13.429  0.00  0.00    -0.297 N 
ATOM     61  H   MET A   2      11.560  43.232  14.156  0.00  0.00    +0.150 HD
ATOM     62  O   LYS A   1       9.551  41.578  12.322  0.00  0.00    -0.274 OA
BRANCH  59  63
ATOM     63  CA  LYS A   1       9.088  42.752  14.365  0.00  0.00    +0.145 C 
BRANCH  63  64
ATOM     64  N   LYS A   1       7.765  42.865  13.804  0.00  0.00    -0.238 NA
ATOM     65  H   LYS A   1       7.494  42.237  13.021  0.00  0.00    +0.142 HD
ENDBRANCH  63  64
BRANCH  63  66
ATOM     66  CB  LYS A   1       9.064  41.794  15.544  0.00  0.00    +0.026 C 
BRANCH  66  67
ATOM     67  CG  LYS A   1      10.299  41.789  16.417  0.00  0.00    -0.000 C 
BRANCH  67  68
ATOM     68  CD  LYS A   1      10.089  40.783  17.526  0.00  0.00    -0.024 C 
BRANCH  68  69
ATOM     69  CE  LYS A   1      11.316  40.553  18.363  0.00  0.00    -0.086 C 
BRANCH  69  70
ATOM     70  NZ  LYS A   1      11.691  41.716  19.182  0.00  0.00    +0.380 N 
ATOM     71  HZ1 LYS A   1      10.910  41.949  19.828  0.00  0.00    -0.089 HD
ATOM     72  HZ2 LYS A   1      12.543  41.490  19.733  0.00  0.00    -0.089 HD
ATOM     73  HZ3 LYS A   1      11.883  42.528  18.561  0.00  0.00    -0.089 HD
ENDBRANCH  69  70
ENDBRANCH  68  69
ENDBRANCH  67  68
ENDBRANCH  66  67
ENDBRANCH  63  66
ENDBRANCH  59  63
ENDBRANCH  58  60
BRANCH  58  74
ATOM     74  CB  MET A   2      12.958  43.020  11.721  0.00  0.00    +0.041 C 
BRANCH  74  75
ATOM     75  CG  MET A   2      12.051  43.320  10.513  0.00  0.00    +0.060 C 
BRANCH  75  76
ATOM     76  SD  MET A   2      12.576  44.605   9.410  0.00  0.00    -0.139 S 
ATOM     77  CE  MET A   2      14.094  43.868   8.766  0.00  0.00    +0.069 C 
ENDBRANCH  75  76
ENDBRANCH  74  75
ENDBRANCH  58  74
ENDBRANCH  54  58
ENDBRANCH  53  56
BRANCH  53  78
ATOM     78  CB  ILE A   3      14.121  38.086  14.624  0.00  0.00    +0.027 C 
ATOM     79  CG2 ILE A   3      13.237  38.595  15.725  0.00  0.00    +0.002 C 
BRANCH  78  80
ATOM     80  CG1 ILE A   3      13.370  37.129  13.690  0.00  0.00    +0.002 C 
ATOM     81  CD1 ILE A   3      12.968  35.798  14.363  0.00  0.00    +0.000 C 
ENDBRANCH  78  80
ENDBRANCH  53  78
ENDBRANCH  49  53
ENDBRANCH  48  50
ENDBRANCH  44  48
ENDBRANCH  43  46
ENDBRANCH   1  43
TORSDOF 36
REMARK  Name = ../refined-set-2016/4djo/4djo_pocket.pdb
REMARK  227 active torsions:
REMARK  status: ('A' for Active; 'I' for Inactive)
REMARK    1  A    between atoms: _1  and  _3
REMARK    2  A    between atoms: _3  and  _4
REMARK    3  A    between atoms: _3  and  _6
REMARK    4  A    between atoms: _6  and  _7
REMARK    5  A    between atoms: _7  and  _8
REMARK    6  A    between atoms: _8  and  _9
REMARK    7  A    between atoms: _18  and  _20
REMARK    8  A    between atoms: _20  and  _21
REMARK    9  A    between atoms: _20  and  _23
REMARK   10  A    between atoms: _23  and  _24
REMARK   11  A    between atoms: _27  and  _29
REMARK   12  A    between atoms: _29  and  _30
REMARK   13  A    between atoms: _29  and  _32
REMARK   14  A    between atoms: _32  and  _33
REMARK   15  A    between atoms: _36  and  _38
REMARK   16  A    between atoms: _38  and  _39
REMARK   17  A    between atoms: _38  and  _41
REMARK   18  A    between atoms: _41  and  _42
REMARK   19  A    between atoms: _45  and  _47
REMARK   20  A    between atoms: _47  and  _48
REMARK   21  A    between atoms: _47  and  _50
REMARK   22  A    between atoms: _50  and  _51
REMARK   23  A    between atoms: _54  and  _56
REMARK   24  A    between atoms: _56  and  _57
REMARK   25  A    between atoms: _59  and  _61
REMARK   26  A    between atoms: _61  and  _62
REMARK   27  A    between atoms: _65  and  _67
REMARK   28  A    between atoms: _67  and  _68
REMARK   29  A    between atoms: _67  and  _70
REMARK   30  A    between atoms: _70  and  _71
REMARK   31  A    between atoms: _74  and  _76
REMARK   32  A    between atoms: _76  and  _77
REMARK   33  A    between atoms: _76  and  _79
REMARK   34  A    between atoms: _79  and  _80
REMARK   35  A    between atoms: _83  and  _85
REMARK   36  A    between atoms: _85  and  _86
REMARK   37  A    between atoms: _85  and  _88
REMARK   38  A    between atoms: _88  and  _89
REMARK   39  A    between atoms: _92  and  _94
REMARK   40  A    between atoms: _94  and  _95
REMARK   41  A    between atoms: _94  and  _97
REMARK   42  A    between atoms: _100  and  _102
REMARK   43  A    between atoms: _102  and  _103
REMARK   44  A    between atoms: _102  and  _105
REMARK   45  A    between atoms: _105  and  _106
REMARK   46  A    between atoms: _106  and  _107
REMARK   47  A    between atoms: _109  and  _111
REMARK   48  A    between atoms: _111  and  _112
REMARK   49  A    between atoms: _111  and  _114
REMARK   50  A    between atoms: _114  and  _115
REMARK   51  A    between atoms: _118  and  _120
REMARK   52  A    between atoms: _120  and  _121
REMARK   53  A    between atoms: _123  and  _125
REMARK   54  A    between atoms: _125  and  _126
REMARK   55  A    between atoms: _128  and  _130
REMARK   56  A    between atoms: _130  and  _131
REMARK   57  A    between atoms: _130  and  _133
REMARK   58  A    between atoms: _133  and  _134
REMARK   59  A    between atoms: _137  and  _139
REMARK   60  A    between atoms: _139  and  _140
REMARK   61  A    between atoms: _142  and  _144
REMARK   62  A    between atoms: _144  and  _145
REMARK   63  A    between atoms: _147  and  _149
REMARK   64  A    between atoms: _149  and  _150
REMARK   65  A    between atoms: _149  and  _152
REMARK   66  A    between atoms: _152  and  _153
REMARK   67  A    between atoms: _159  and  _161
REMARK   68  A    between atoms: _161  and  _162
REMARK   69  A    between atoms: _161  and  _164
REMARK   70  A    between atoms: _164  and  _165
REMARK   71  A    between atoms: _168  and  _170
REMARK   72  A    between atoms: _170  and  _171
REMARK   73  A    between atoms: _170  and  _173
REMARK   74  A    between atoms: _176  and  _178
REMARK   75  A    between atoms: _178  and  _179
REMARK   76  A    between atoms: _178  and  _181
REMARK   77  A    between atoms: _181  and  _182
REMARK   78  A    between atoms: _186  and  _187
REMARK   79  A    between atoms: _192  and  _194
REMARK   80  A    between atoms: _194  and  _195
REMARK   81  A    between atoms: _194  and  _197
REMARK   82  A    between atoms: _197  and  _198
REMARK   83  A    between atoms: _202  and  _203
REMARK   84  A    between atoms: _208  and  _210
REMARK   85  A    between atoms: _210  and  _211
REMARK   86  A    between atoms: _210  and  _213
REMARK   87  A    between atoms: _216  and  _218
REMARK   88  A    between atoms: _218  and  _219
REMARK   89  A    between atoms: _218  and  _221
REMARK   90  A    between atoms: _221  and  _222
REMARK   91  A    between atoms: _227  and  _229
REMARK   92  A    between atoms: _229  and  _230
REMARK   93  A    between atoms: _229  and  _232
REMARK   94  A    between atoms: _232  and  _233
REMARK   95  A    between atoms: _236  and  _238
REMARK   96  A    between atoms: _238  and  _239
REMARK   97  A    between atoms: _238  and  _241
REMARK   98  A    between atoms: _241  and  _242
REMARK   99  A    between atoms: _245  and  _247
REMARK  100  A    between atoms: _247  and  _248
REMARK  101  A    between atoms: _250  and  _252
REMARK  102  A    between atoms: _252  and  _253
REMARK  103  A    between atoms: _252  and  _255
REMARK  104  A    between atoms: _255  and  _256
REMARK  105  A    between atoms: _256  and  _257
REMARK  106  A    between atoms: _257  and  _258
REMARK  107  A    between atoms: _267  and  _269
REMARK  108  A    between atoms: _269  and  _270
REMARK  109  A    between atoms: _269  and  _272
REMARK  110  A    between atoms: _272  and  _273
REMARK  111  A    between atoms: _278  and  _280
REMARK  112  A    between atoms: _280  and  _281
REMARK  113  A    between atoms: _280  and  _283
REMARK  114  A    between atoms: _283  and  _284
REMARK  115  A    between atoms: _284  and  _285
REMARK  116  A    between atoms: _285  and  _286
REMARK  117  A    between atoms: _295  and  _297
REMARK  118  A    between atoms: _297  and  _298
REMARK  119  A    between atoms: _297  and  _300
REMARK  120  A    between atoms: _300  and  _301
REMARK  121  A    between atoms: _304  and  _306
REMARK  122  A    between atoms: _306  and  _307
REMARK  123  A    between atoms: _306  and  _309
REMARK  124  A    between atoms: _309  and  _310
REMARK  125  A    between atoms: _313  and  _315
REMARK  126  A    between atoms: _315  and  _316
REMARK  127  A    between atoms: _315  and  _318
REMARK  128  A    between atoms: _318  and  _319
REMARK  129  A    between atoms: _322  and  _324
REMARK  130  A    between atoms: _324  and  _325
REMARK  131  A    between atoms: _324  and  _327
REMARK  132  A    between atoms: _327  and  _328
REMARK  133  A    between atoms: _331  and  _333
REMARK  134  A    between atoms: _333  and  _334
REMARK  135  A    between atoms: _336  and  _338
REMARK  136  A    between atoms: _338  and  _339
REMARK  137  A    between atoms: _342  and  _344
REMARK  138  A    between atoms: _344  and  _345
REMARK  139  A    between atoms: _344  and  _347
REMARK  140  A    between atoms: _347  and  _348
REMARK  141  A    between atoms: _351  and  _353
REMARK  142  A    between atoms: _353  and  _354
REMARK  143  A    between atoms: _353  and  _356
REMARK  144  A    between atoms: _356  and  _357
REMARK  145  A    between atoms: _360  and  _362
REMARK  146  A    between atoms: _362  and  _363
REMARK  147  A    between atoms: _362  and  _365
REMARK  148  A    between atoms: _365  and  _366
REMARK  149  A    between atoms: _369  and  _371
REMARK  150  A    between atoms: _371  and  _372
REMARK  151  A    between atoms: _371  and  _374
REMARK  152  A    between atoms: _377  and  _379
REMARK  153  A    between atoms: _379  and  _380
REMARK  154  A    between atoms: _379  and  _382
REMARK  155  A    between atoms: _382  and  _383
REMARK  156  A    between atoms: _383  and  _384
REMARK  157  A    between atoms: _384  and  _385
REMARK  158  A    between atoms: _385  and  _386
REMARK  159  A    between atoms: _390  and  _392
REMARK  160  A    between atoms: _392  and  _393
REMARK  161  A    between atoms: _392  and  _395
REMARK  162  A    between atoms: _395  and  _396
REMARK  163  A    between atoms: _396  and  _397
REMARK  164  A    between atoms: _399  and  _401
REMARK  165  A    between atoms: _401  and  _402
REMARK  166  A    between atoms: _401  and  _404
REMARK  167  A    between atoms: _404  and  _405
REMARK  168  A    between atoms: _408  and  _410
REMARK  169  A    between atoms: _410  and  _411
REMARK  170  A    between atoms: _413  and  _415
REMARK  171  A    between atoms: _415  and  _416
REMARK  172  A    between atoms: _418  and  _420
REMARK  173  A    between atoms: _420  and  _421
REMARK  174  A    between atoms: _420  and  _423
REMARK  175  A    between atoms: _423  and  _424
REMARK  176  A    between atoms: _427  and  _429
REMARK  177  A    between atoms: _429  and  _430
REMARK  178  A    between atoms: _432  and  _434
REMARK  179  A    between atoms: _434  and  _435
REMARK  180  A    between atoms: _437  and  _439
REMARK  181  A    between atoms: _439  and  _440
REMARK  182  A    between atoms: _439  and  _442
REMARK  183  A    between atoms: _442  and  _443
REMARK  184  A    between atoms: _449  and  _451
REMARK  185  A    between atoms: _451  and  _452
REMARK  186  A    between atoms: _451  and  _454
REMARK  187  A    between atoms: _454  and  _455
REMARK  188  A    between atoms: _458  and  _460
REMARK  189  A    between atoms: _460  and  _461
REMARK  190  A    between atoms: _460  and  _463
REMARK  191  A    between atoms: _466  and  _468
REMARK  192  A    between atoms: _468  and  _469
REMARK  193  A    between atoms: _468  and  _471
REMARK  194  A    between atoms: _471  and  _472
REMARK  195  A    between atoms: _476  and  _477
REMARK  196  A    between atoms: _482  and  _484
REMARK  197  A    between atoms: _484  and  _485
REMARK  198  A    between atoms: _484  and  _487
REMARK  199  A    between atoms: _487  and  _488
REMARK  200  A    between atoms: _492  and  _493
REMARK  201  A    between atoms: _498  and  _500
REMARK  202  A    between atoms: _500  and  _501
REMARK  203  A    between atoms: _500  and  _503
REMARK  204  A    between atoms: _506  and  _508
REMARK  205  A    between atoms: _508  and  _509
REMARK  206  A    between atoms: _508  and  _511
REMARK  207  A    between atoms: _511  and  _512
REMARK  208  A    between atoms: _517  and  _519
REMARK  209  A    between atoms: _519  and  _520
REMARK  210  A    between atoms: _519  and  _522
REMARK  211  A    between atoms: _522  and  _523
REMARK  212  A    between atoms: _526  and  _528
REMARK  213  A    between atoms: _528  and  _529
REMARK  214  A    between atoms: _528  and  _531
REMARK  215  A    between atoms: _531  and  _532
REMARK  216  A    between atoms: _535  and  _537
REMARK  217  A    between atoms: _537  and  _538
REMARK  218  A    between atoms: _540  and  _542
REMARK  219  A    between atoms: _542  and  _543
REMARK  220  A    between atoms: _542  and  _545
REMARK  221  A    between atoms: _545  and  _546
REMARK  222  A    between atoms: _546  and  _547
REMARK  223  A    between atoms: _547  and  _548
REMARK  224  A    between atoms: _557  and  _559
REMARK  225  A    between atoms: _559  and  _560
REMARK  226  A    between atoms: _559  and  _562
REMARK  227  A    between atoms: _562  and  _563
REMARK                            x       y       z     vdW  Elec       q    Type
REMARK                         _______ _______ _______ _____ _____    ______ ____
ROOT
ATOM      1  CA  VAL A   1       7.718  38.337  11.703  0.00  0.00    +0.133 C 
ENDROOT
BRANCH   1   2
ATOM      2  CB  VAL A   1       8.468  37.489  12.736  0.00  0.00    +0.023 C 
ATOM      3  CG2 VAL A   1       9.086  38.369  13.847  0.00  0.00    +0.002 C 
ATOM      4  CG1 VAL A   1       9.519  36.633  12.043  0.00  0.00    +0.002 C 
ENDBRANCH   1   2
BRANCH   1   5
ATOM      5  N   VAL A   1       8.622  39.252  10.997  0.00  0.00    -0.239 NA
ATOM      6  H   VAL A   1       8.952  40.114  11.477  0.00  0.00    +0.142 HD
ENDBRANCH   1   5
BRANCH   1   7
ATOM      7  C   VAL A   1       6.581  39.079  12.386  0.00  0.00    +0.224 C 
ATOM      8  O   VAL A   1       6.637  40.302  12.567  0.00  0.00    -0.287 OA
ENDBRANCH   1   7
TORSDOF 3
REMARK  Name = ../refined-set-2016/4djo/4djo_pocket.pdb
REMARK  227 active torsions:
REMARK  status: ('A' for Active; 'I' for Inactive)
REMARK    1  A    between atoms: _1  and  _3
REMARK    2  A    between atoms: _3  and  _4
REMARK    3  A    between atoms: _3  and  _6
REMARK    4  A    between atoms: _6  and  _7
REMARK    5  A    between atoms: _7  and  _8
REMARK    6  A    between atoms: _8  and  _9
REMARK    7  A    between atoms: _18  and  _20
REMARK    8  A    between atoms: _20  and  _21
REMARK    9  A    between atoms: _20  and  _23
REMARK   10  A    between atoms: _23  and  _24
REMARK   11  A    between atoms: _27  and  _29
REMARK   12  A    between atoms: _29  and  _30
REMARK   13  A    between atoms: _29  and  _32
REMARK   14  A    between atoms: _32  and  _33
REMARK   15  A    between atoms: _36  and  _38
REMARK   16  A    between atoms: _38  and  _39
REMARK   17  A    between atoms: _38  and  _41
REMARK   18  A    between atoms: _41  and  _42
REMARK   19  A    between atoms: _45  and  _47
REMARK   20  A    between atoms: _47  and  _48
REMARK   21  A    between atoms: _47  and  _50
REMARK   22  A    between atoms: _50  and  _51
REMARK   23  A    between atoms: _54  and  _56
REMARK   24  A    between atoms: _56  and  _57
REMARK   25  A    between atoms: _59  and  _61
REMARK   26  A    between atoms: _61  and  _62
REMARK   27  A    between atoms: _65  and  _67
REMARK   28  A    between atoms: _67  and  _68
REMARK   29  A    between atoms: _67  and  _70
REMARK   30  A    between atoms: _70  and  _71
REMARK   31  A    between atoms: _74  and  _76
REMARK   32  A    between atoms: _76  and  _77
REMARK   33  A    between atoms: _76  and  _79
REMARK   34  A    between atoms: _79  and  _80
REMARK   35  A    between atoms: _83  and  _85
REMARK   36  A    between atoms: _85  and  _86
REMARK   37  A    between atoms: _85  and  _88
REMARK   38  A    between atoms: _88  and  _89
REMARK   39  A    between atoms: _92  and  _94
REMARK   40  A    between atoms: _94  and  _95
REMARK   41  A    between atoms: _94  and  _97
REMARK   42  A    between atoms: _100  and  _102
REMARK   43  A    between atoms: _102  and  _103
REMARK   44  A    between atoms: _102  and  _105
REMARK   45  A    between atoms: _105  and  _106
REMARK   46  A    between atoms: _106  and  _107
REMARK   47  A    between atoms: _109  and  _111
REMARK   48  A    between atoms: _111  and  _112
REMARK   49  A    between atoms: _111  and  _114
REMARK   50  A    between atoms: _114  and  _115
REMARK   51  A    between atoms: _118  and  _120
REMARK   52  A    between atoms: _120  and  _121
REMARK   53  A    between atoms: _123  and  _125
REMARK   54  A    between atoms: _125  and  _126
REMARK   55  A    between atoms: _128  and  _130
REMARK   56  A    between atoms: _130  and  _131
REMARK   57  A    between atoms: _130  and  _133
REMARK   58  A    between atoms: _133  and  _134
REMARK   59  A    between atoms: _137  and  _139
REMARK   60  A    between atoms: _139  and  _140
REMARK   61  A    between atoms: _142  and  _144
REMARK   62  A    between atoms: _144  and  _145
REMARK   63  A    between atoms: _147  and  _149
REMARK   64  A    between atoms: _149  and  _150
REMARK   65  A    between atoms: _149  and  _152
REMARK   66  A    between atoms: _152  and  _153
REMARK   67  A    between atoms: _159  and  _161
REMARK   68  A    between atoms: _161  and  _162
REMARK   69  A    between atoms: _161  and  _164
REMARK   70  A    between atoms: _164  and  _165
REMARK   71  A    between atoms: _168  and  _170
REMARK   72  A    between atoms: _170  and  _171
REMARK   73  A    between atoms: _170  and  _173
REMARK   74  A    between atoms: _176  and  _178
REMARK   75  A    between atoms: _178  and  _179
REMARK   76  A    between atoms: _178  and  _181
REMARK   77  A    between atoms: _181  and  _182
REMARK   78  A    between atoms: _186  and  _187
REMARK   79  A    between atoms: _192  and  _194
REMARK   80  A    between atoms: _194  and  _195
REMARK   81  A    between atoms: _194  and  _197
REMARK   82  A    between atoms: _197  and  _198
REMARK   83  A    between atoms: _202  and  _203
REMARK   84  A    between atoms: _208  and  _210
REMARK   85  A    between atoms: _210  and  _211
REMARK   86  A    between atoms: _210  and  _213
REMARK   87  A    between atoms: _216  and  _218
REMARK   88  A    between atoms: _218  and  _219
REMARK   89  A    between atoms: _218  and  _221
REMARK   90  A    between atoms: _221  and  _222
REMARK   91  A    between atoms: _227  and  _229
REMARK   92  A    between atoms: _229  and  _230
REMARK   93  A    between atoms: _229  and  _232
REMARK   94  A    between atoms: _232  and  _233
REMARK   95  A    between atoms: _236  and  _238
REMARK   96  A    between atoms: _238  and  _239
REMARK   97  A    between atoms: _238  and  _241
REMARK   98  A    between atoms: _241  and  _242
REMARK   99  A    between atoms: _245  and  _247
REMARK  100  A    between atoms: _247  and  _248
REMARK  101  A    between atoms: _250  and  _252
REMARK  102  A    between atoms: _252  and  _253
REMARK  103  A    between atoms: _252  and  _255
REMARK  104  A    between atoms: _255  and  _256
REMARK  105  A    between atoms: _256  and  _257
REMARK  106  A    between atoms: _257  and  _258
REMARK  107  A    between atoms: _267  and  _269
REMARK  108  A    between atoms: _269  and  _270
REMARK  109  A    between atoms: _269  and  _272
REMARK  110  A    between atoms: _272  and  _273
REMARK  111  A    between atoms: _278  and  _280
REMARK  112  A    between atoms: _280  and  _281
REMARK  113  A    between atoms: _280  and  _283
REMARK  114  A    between atoms: _283  and  _284
REMARK  115  A    between atoms: _284  and  _285
REMARK  116  A    between atoms: _285  and  _286
REMARK  117  A    between atoms: _295  and  _297
REMARK  118  A    between atoms: _297  and  _298
REMARK  119  A    between atoms: _297  and  _300
REMARK  120  A    between atoms: _300  and  _301
REMARK  121  A    between atoms: _304  and  _306
REMARK  122  A    between atoms: _306  and  _307
REMARK  123  A    between atoms: _306  and  _309
REMARK  124  A    between atoms: _309  and  _310
REMARK  125  A    between atoms: _313  and  _315
REMARK  126  A    between atoms: _315  and  _316
REMARK  127  A    between atoms: _315  and  _318
REMARK  128  A    between atoms: _318  and  _319
REMARK  129  A    between atoms: _322  and  _324
REMARK  130  A    between atoms: _324  and  _325
REMARK  131  A    between atoms: _324  and  _327
REMARK  132  A    between atoms: _327  and  _328
REMARK  133  A    between atoms: _331  and  _333
REMARK  134  A    between atoms: _333  and  _334
REMARK  135  A    between atoms: _336  and  _338
REMARK  136  A    between atoms: _338  and  _339
REMARK  137  A    between atoms: _342  and  _344
REMARK  138  A    between atoms: _344  and  _345
REMARK  139  A    between atoms: _344  and  _347
REMARK  140  A    between atoms: _347  and  _348
REMARK  141  A    between atoms: _351  and  _353
REMARK  142  A    between atoms: _353  and  _354
REMARK  143  A    between atoms: _353  and  _356
REMARK  144  A    between atoms: _356  and  _357
REMARK  145  A    between atoms: _360  and  _362
REMARK  146  A    between atoms: _362  and  _363
REMARK  147  A    between atoms: _362  and  _365
REMARK  148  A    between atoms: _365  and  _366
REMARK  149  A    between atoms: _369  and  _371
REMARK  150  A    between atoms: _371  and  _372
REMARK  151  A    between atoms: _371  and  _374
REMARK  152  A    between atoms: _377  and  _379
REMARK  153  A    between atoms: _379  and  _380
REMARK  154  A    between atoms: _379  and  _382
REMARK  155  A    between atoms: _382  and  _383
REMARK  156  A    between atoms: _383  and  _384
REMARK  157  A    between atoms: _384  and  _385
REMARK  158  A    between atoms: _385  and  _386
REMARK  159  A    between atoms: _390  and  _392
REMARK  160  A    between atoms: _392  and  _393
REMARK  161  A    between atoms: _392  and  _395
REMARK  162  A    between atoms: _395  and  _396
REMARK  163  A    between atoms: _396  and  _397
REMARK  164  A    between atoms: _399  and  _401
REMARK  165  A    between atoms: _401  and  _402
REMARK  166  A    between atoms: _401  and  _404
REMARK  167  A    between atoms: _404  and  _405
REMARK  168  A    between atoms: _408  and  _410
REMARK  169  A    between atoms: _410  and  _411
REMARK  170  A    between atoms: _413  and  _415
REMARK  171  A    between atoms: _415  and  _416
REMARK  172  A    between atoms: _418  and  _420
REMARK  173  A    between atoms: _420  and  _421
REMARK  174  A    between atoms: _420  and  _423
REMARK  175  A    between atoms: _423  and  _424
REMARK  176  A    between atoms: _427  and  _429
REMARK  177  A    between atoms: _429  and  _430
REMARK  178  A    between atoms: _432  and  _434
REMARK  179  A    between atoms: _434  and  _435
REMARK  180  A    between atoms: _437  and  _439
REMARK  181  A    between atoms: _439  and  _440
REMARK  182  A    between atoms: _439  and  _442
REMARK  183  A    between atoms: _442  and  _443
REMARK  184  A    between atoms: _449  and  _451
REMARK  185  A    between atoms: _451  and  _452
REMARK  186  A    between atoms: _451  and  _454
REMARK  187  A    between atoms: _454  and  _455
REMARK  188  A    between atoms: _458  and  _460
REMARK  189  A    between atoms: _460  and  _461
REMARK  190  A    between atoms: _460  and  _463
REMARK  191  A    between atoms: _466  and  _468
REMARK  192  A    between atoms: _468  and  _469
REMARK  193  A    between atoms: _468  and  _471
REMARK  194  A    between atoms: _471  and  _472
REMARK  195  A    between atoms: _476  and  _477
REMARK  196  A    between atoms: _482  and  _484
REMARK  197  A    between atoms: _484  and  _485
REMARK  198  A    between atoms: _484  and  _487
REMARK  199  A    between atoms: _487  and  _488
REMARK  200  A    between atoms: _492  and  _493
REMARK  201  A    between atoms: _498  and  _500
REMARK  202  A    between atoms: _500  and  _501
REMARK  203  A    between atoms: _500  and  _503
REMARK  204  A    between atoms: _506  and  _508
REMARK  205  A    between atoms: _508  and  _509
REMARK  206  A    between atoms: _508  and  _511
REMARK  207  A    between atoms: _511  and  _512
REMARK  208  A    between atoms: _517  and  _519
REMARK  209  A    between atoms: _519  and  _520
REMARK  210  A    between atoms: _519  and  _522
REMARK  211  A    between atoms: _522  and  _523
REMARK  212  A    between atoms: _526  and  _528
REMARK  213  A    between atoms: _528  and  _529
REMARK  214  A    between atoms: _528  and  _531
REMARK  215  A    between atoms: _531  and  _532
REMARK  216  A    between atoms: _535  and  _537
REMARK  217  A    between atoms: _537  and  _538
REMARK  218  A    between atoms: _540  and  _542
REMARK  219  A    between atoms: _542  and  _543
REMARK  220  A    between atoms: _542  and  _545
REMARK  221  A    between atoms: _545  and  _546
REMARK  222  A    between atoms: _546  and  _547
REMARK  223  A    between atoms: _547  and  _548
REMARK  224  A    between atoms: _557  and  _559
REMARK  225  A    between atoms: _559  and  _560
REMARK  226  A    between atoms: _559  and  _562
REMARK  227  A    between atoms: _562  and  _563
REMARK                            x       y       z     vdW  Elec       q    Type
REMARK                         _______ _______ _______ _____ _____    ______ ____
ROOT
ATOM      1  CA  LEU A   1       6.970  35.114  16.472  0.00  0.00    +0.133 C 
ENDROOT
BRANCH   1   2
ATOM      2  N   LEU A   1       6.733  34.316  17.669  0.00  0.00    -0.239 NA
ATOM      3  H   LEU A   1       7.432  33.592  17.933  0.00  0.00    +0.142 HD
ENDBRANCH   1   2
BRANCH   1   4
ATOM      4  C   LEU A   1       6.611  34.237  15.276  0.00  0.00    +0.224 C 
ATOM      5  O   LEU A   1       7.039  33.089  15.214  0.00  0.00    -0.287 OA
ENDBRANCH   1   4
BRANCH   1   6
ATOM      6  CB  LEU A   1       8.430  35.543  16.391  0.00  0.00    +0.025 C 
BRANCH   6   7
ATOM      7  CG  LEU A   1       8.959  36.322  17.608  0.00  0.00    +0.002 C 
ATOM      8  CD2 LEU A   1       8.045  37.482  18.017  0.00  0.00    +0.000 C 
ATOM      9  CD1 LEU A   1      10.371  36.818  17.350  0.00  0.00    +0.000 C 
ENDBRANCH   6   7
ENDBRANCH   1   6
TORSDOF 4
REMARK  Name = ../refined-set-2016/4djo/4djo_pocket.pdb
REMARK  227 active torsions:
REMARK  status: ('A' for Active; 'I' for Inactive)
REMARK    1  A    between atoms: _1  and  _3
REMARK    2  A    between atoms: _3  and  _4
REMARK    3  A    between atoms: _3  and  _6
REMARK    4  A    between atoms: _6  and  _7
REMARK    5  A    between atoms: _7  and  _8
REMARK    6  A    between atoms: _8  and  _9
REMARK    7  A    between atoms: _18  and  _20
REMARK    8  A    between atoms: _20  and  _21
REMARK    9  A    between atoms: _20  and  _23
REMARK   10  A    between atoms: _23  and  _24
REMARK   11  A    between atoms: _27  and  _29
REMARK   12  A    between atoms: _29  and  _30
REMARK   13  A    between atoms: _29  and  _32
REMARK   14  A    between atoms: _32  and  _33
REMARK   15  A    between atoms: _36  and  _38
REMARK   16  A    between atoms: _38  and  _39
REMARK   17  A    between atoms: _38  and  _41
REMARK   18  A    between atoms: _41  and  _42
REMARK   19  A    between atoms: _45  and  _47
REMARK   20  A    between atoms: _47  and  _48
REMARK   21  A    between atoms: _47  and  _50
REMARK   22  A    between atoms: _50  and  _51
REMARK   23  A    between atoms: _54  and  _56
REMARK   24  A    between atoms: _56  and  _57
REMARK   25  A    between atoms: _59  and  _61
REMARK   26  A    between atoms: _61  and  _62
REMARK   27  A    between atoms: _65  and  _67
REMARK   28  A    between atoms: _67  and  _68
REMARK   29  A    between atoms: _67  and  _70
REMARK   30  A    between atoms: _70  and  _71
REMARK   31  A    between atoms: _74  and  _76
REMARK   32  A    between atoms: _76  and  _77
REMARK   33  A    between atoms: _76  and  _79
REMARK   34  A    between atoms: _79  and  _80
REMARK   35  A    between atoms: _83  and  _85
REMARK   36  A    between atoms: _85  and  _86
REMARK   37  A    between atoms: _85  and  _88
REMARK   38  A    between atoms: _88  and  _89
REMARK   39  A    between atoms: _92  and  _94
REMARK   40  A    between atoms: _94  and  _95
REMARK   41  A    between atoms: _94  and  _97
REMARK   42  A    between atoms: _100  and  _102
REMARK   43  A    between atoms: _102  and  _103
REMARK   44  A    between atoms: _102  and  _105
REMARK   45  A    between atoms: _105  and  _106
REMARK   46  A    between atoms: _106  and  _107
REMARK   47  A    between atoms: _109  and  _111
REMARK   48  A    between atoms: _111  and  _112
REMARK   49  A    between atoms: _111  and  _114
REMARK   50  A    between atoms: _114  and  _115
REMARK   51  A    between atoms: _118  and  _120
REMARK   52  A    between atoms: _120  and  _121
REMARK   53  A    between atoms: _123  and  _125
REMARK   54  A    between atoms: _125  and  _126
REMARK   55  A    between atoms: _128  and  _130
REMARK   56  A    between atoms: _130  and  _131
REMARK   57  A    between atoms: _130  and  _133
REMARK   58  A    between atoms: _133  and  _134
REMARK   59  A    between atoms: _137  and  _139
REMARK   60  A    between atoms: _139  and  _140
REMARK   61  A    between atoms: _142  and  _144
REMARK   62  A    between atoms: _144  and  _145
REMARK   63  A    between atoms: _147  and  _149
REMARK   64  A    between atoms: _149  and  _150
REMARK   65  A    between atoms: _149  and  _152
REMARK   66  A    between atoms: _152  and  _153
REMARK   67  A    between atoms: _159  and  _161
REMARK   68  A    between atoms: _161  and  _162
REMARK   69  A    between atoms: _161  and  _164
REMARK   70  A    between atoms: _164  and  _165
REMARK   71  A    between atoms: _168  and  _170
REMARK   72  A    between atoms: _170  and  _171
REMARK   73  A    between atoms: _170  and  _173
REMARK   74  A    between atoms: _176  and  _178
REMARK   75  A    between atoms: _178  and  _179
REMARK   76  A    between atoms: _178  and  _181
REMARK   77  A    between atoms: _181  and  _182
REMARK   78  A    between atoms: _186  and  _187
REMARK   79  A    between atoms: _192  and  _194
REMARK   80  A    between atoms: _194  and  _195
REMARK   81  A    between atoms: _194  and  _197
REMARK   82  A    between atoms: _197  and  _198
REMARK   83  A    between atoms: _202  and  _203
REMARK   84  A    between atoms: _208  and  _210
REMARK   85  A    between atoms: _210  and  _211
REMARK   86  A    between atoms: _210  and  _213
REMARK   87  A    between atoms: _216  and  _218
REMARK   88  A    between atoms: _218  and  _219
REMARK   89  A    between atoms: _218  and  _221
REMARK   90  A    between atoms: _221  and  _222
REMARK   91  A    between atoms: _227  and  _229
REMARK   92  A    between atoms: _229  and  _230
REMARK   93  A    between atoms: _229  and  _232
REMARK   94  A    between atoms: _232  and  _233
REMARK   95  A    between atoms: _236  and  _238
REMARK   96  A    between atoms: _238  and  _239
REMARK   97  A    between atoms: _238  and  _241
REMARK   98  A    between atoms: _241  and  _242
REMARK   99  A    between atoms: _245  and  _247
REMARK  100  A    between atoms: _247  and  _248
REMARK  101  A    between atoms: _250  and  _252
REMARK  102  A    between atoms: _252  and  _253
REMARK  103  A    between atoms: _252  and  _255
REMARK  104  A    between atoms: _255  and  _256
REMARK  105  A    between atoms: _256  and  _257
REMARK  106  A    between atoms: _257  and  _258
REMARK  107  A    between atoms: _267  and  _269
REMARK  108  A    between atoms: _269  and  _270
REMARK  109  A    between atoms: _269  and  _272
REMARK  110  A    between atoms: _272  and  _273
REMARK  111  A    between atoms: _278  and  _280
REMARK  112  A    between atoms: _280  and  _281
REMARK  113  A    between atoms: _280  and  _283
REMARK  114  A    between atoms: _283  and  _284
REMARK  115  A    between atoms: _284  and  _285
REMARK  116  A    between atoms: _285  and  _286
REMARK  117  A    between atoms: _295  and  _297
REMARK  118  A    between atoms: _297  and  _298
REMARK  119  A    between atoms: _297  and  _300
REMARK  120  A    between atoms: _300  and  _301
REMARK  121  A    between atoms: _304  and  _306
REMARK  122  A    between atoms: _306  and  _307
REMARK  123  A    between atoms: _306  and  _309
REMARK  124  A    between atoms: _309  and  _310
REMARK  125  A    between atoms: _313  and  _315
REMARK  126  A    between atoms: _315  and  _316
REMARK  127  A    between atoms: _315  and  _318
REMARK  128  A    between atoms: _318  and  _319
REMARK  129  A    between atoms: _322  and  _324
REMARK  130  A    between atoms: _324  and  _325
REMARK  131  A    between atoms: _324  and  _327
REMARK  132  A    between atoms: _327  and  _328
REMARK  133  A    between atoms: _331  and  _333
REMARK  134  A    between atoms: _333  and  _334
REMARK  135  A    between atoms: _336  and  _338
REMARK  136  A    between atoms: _338  and  _339
REMARK  137  A    between atoms: _342  and  _344
REMARK  138  A    between atoms: _344  and  _345
REMARK  139  A    between atoms: _344  and  _347
REMARK  140  A    between atoms: _347  and  _348
REMARK  141  A    between atoms: _351  and  _353
REMARK  142  A    between atoms: _353  and  _354
REMARK  143  A    between atoms: _353  and  _356
REMARK  144  A    between atoms: _356  and  _357
REMARK  145  A    between atoms: _360  and  _362
REMARK  146  A    between atoms: _362  and  _363
REMARK  147  A    between atoms: _362  and  _365
REMARK  148  A    between atoms: _365  and  _366
REMARK  149  A    between atoms: _369  and  _371
REMARK  150  A    between atoms: _371  and  _372
REMARK  151  A    between atoms: _371  and  _374
REMARK  152  A    between atoms: _377  and  _379
REMARK  153  A    between atoms: _379  and  _380
REMARK  154  A    between atoms: _379  and  _382
REMARK  155  A    between atoms: _382  and  _383
REMARK  156  A    between atoms: _383  and  _384
REMARK  157  A    between atoms: _384  and  _385
REMARK  158  A    between atoms: _385  and  _386
REMARK  159  A    between atoms: _390  and  _392
REMARK  160  A    between atoms: _392  and  _393
REMARK  161  A    between atoms: _392  and  _395
REMARK  162  A    between atoms: _395  and  _396
REMARK  163  A    between atoms: _396  and  _397
REMARK  164  A    between atoms: _399  and  _401
REMARK  165  A    between atoms: _401  and  _402
REMARK  166  A    between atoms: _401  and  _404
REMARK  167  A    between atoms: _404  and  _405
REMARK  168  A    between atoms: _408  and  _410
REMARK  169  A    between atoms: _410  and  _411
REMARK  170  A    between atoms: _413  and  _415
REMARK  171  A    between atoms: _415  and  _416
REMARK  172  A    between atoms: _418  and  _420
REMARK  173  A    between atoms: _420  and  _421
REMARK  174  A    between atoms: _420  and  _423
REMARK  175  A    between atoms: _423  and  _424
REMARK  176  A    between atoms: _427  and  _429
REMARK  177  A    between atoms: _429  and  _430
REMARK  178  A    between atoms: _432  and  _434
REMARK  179  A    between atoms: _434  and  _435
REMARK  180  A    between atoms: _437  and  _439
REMARK  181  A    between atoms: _439  and  _440
REMARK  182  A    between atoms: _439  and  _442
REMARK  183  A    between atoms: _442  and  _443
REMARK  184  A    between atoms: _449  and  _451
REMARK  185  A    between atoms: _451  and  _452
REMARK  186  A    between atoms: _451  and  _454
REMARK  187  A    between atoms: _454  and  _455
REMARK  188  A    between atoms: _458  and  _460
REMARK  189  A    between atoms: _460  and  _461
REMARK  190  A    between atoms: _460  and  _463
REMARK  191  A    between atoms: _466  and  _468
REMARK  192  A    between atoms: _468  and  _469
REMARK  193  A    between atoms: _468  and  _471
REMARK  194  A    between atoms: _471  and  _472
REMARK  195  A    between atoms: _476  and  _477
REMARK  196  A    between atoms: _482  and  _484
REMARK  197  A    between atoms: _484  and  _485
REMARK  198  A    between atoms: _484  and  _487
REMARK  199  A    between atoms: _487  and  _488
REMARK  200  A    between atoms: _492  and  _493
REMARK  201  A    between atoms: _498  and  _500
REMARK  202  A    between atoms: _500  and  _501
REMARK  203  A    between atoms: _500  and  _503
REMARK  204  A    between atoms: _506  and  _508
REMARK  205  A    between atoms: _508  and  _509
REMARK  206  A    between atoms: _508  and  _511
REMARK  207  A    between atoms: _511  and  _512
REMARK  208  A    between atoms: _517  and  _519
REMARK  209  A    between atoms: _519  and  _520
REMARK  210  A    between atoms: _519  and  _522
REMARK  211  A    between atoms: _522  and  _523
REMARK  212  A    between atoms: _526  and  _528
REMARK  213  A    between atoms: _528  and  _529
REMARK  214  A    between atoms: _528  and  _531
REMARK  215  A    between atoms: _531  and  _532
REMARK  216  A    between atoms: _535  and  _537
REMARK  217  A    between atoms: _537  and  _538
REMARK  218  A    between atoms: _540  and  _542
REMARK  219  A    between atoms: _542  and  _543
REMARK  220  A    between atoms: _542  and  _545
REMARK  221  A    between atoms: _545  and  _546
REMARK  222  A    between atoms: _546  and  _547
REMARK  223  A    between atoms: _547  and  _548
REMARK  224  A    between atoms: _557  and  _559
REMARK  225  A    between atoms: _559  and  _560
REMARK  226  A    between atoms: _559  and  _562
REMARK  227  A    between atoms: _562  and  _563
REMARK                            x       y       z     vdW  Elec       q    Type
REMARK                         _______ _______ _______ _____ _____    ______ ____
ROOT
ATOM      1  CA  ILE A   6      12.209  27.257  16.723  0.00  0.00    +0.149 C 
ENDROOT
BRANCH   1   3
ATOM      2  C   ASN A   5      11.058  25.950  14.981  0.00  0.00    +0.241 C 
ATOM      3  N   ILE A   6      11.164  27.047  15.721  0.00  0.00    -0.297 N 
ATOM      4  H   ILE A   6      10.463  27.802  15.580  0.00  0.00    +0.150 HD
ATOM      5  O   ASN A   5      11.746  24.939  15.157  0.00  0.00    -0.273 OA
BRANCH   2   6
ATOM      6  CA  ASN A   5       9.994  25.983  13.884  0.00  0.00    +0.158 C 
BRANCH   6   8
ATOM      7  C   VAL A   4      11.464  26.301  11.969  0.00  0.00    +0.241 C 
ATOM      8  N   ASN A   5      10.613  25.535  12.646  0.00  0.00    -0.297 N 
ATOM      9  H   ASN A   5      10.384  24.589  12.280  0.00  0.00    +0.150 HD
ATOM     10  O   VAL A   4      11.685  27.485  12.255  0.00  0.00    -0.273 OA
BRANCH   7  11
ATOM     11  CA  VAL A   4      12.152  25.654  10.775  0.00  0.00    +0.149 C 
BRANCH  11  13
ATOM     12  C   PRO A   3      12.295  26.419   8.460  0.00  0.00    +0.241 C 
ATOM     13  N   VAL A   4      12.351  26.676   9.761  0.00  0.00    -0.297 N 
ATOM     14  H   VAL A   4      12.546  27.650  10.068  0.00  0.00    +0.150 HD
ATOM     15  O   PRO A   3      12.009  25.299   8.008  0.00  0.00    -0.273 OA
BRANCH  12  22
ATOM     16  C   THR A   2      11.388  29.486   8.410  0.00  0.00    +0.246 C 
ATOM     17  O   THR A   2      10.305  28.951   8.143  0.00  0.00    -0.273 OA
ATOM     18  N   PRO A   3      12.559  28.930   8.115  0.00  0.00    -0.272 N 
ATOM     19  CD  PRO A   3      13.887  29.553   8.231  0.00  0.00    +0.094 C 
ATOM     20  CG  PRO A   3      14.813  28.435   7.904  0.00  0.00    +0.024 C 
ATOM     21  CB  PRO A   3      14.067  27.506   7.026  0.00  0.00    +0.031 C 
ATOM     22  CA  PRO A   3      12.617  27.590   7.511  0.00  0.00    +0.152 C 
BRANCH  16  23
ATOM     23  CA  THR A   2      11.443  30.827   9.111  0.00  0.00    +0.176 C 
BRANCH  23  25
ATOM     24  C   PRO A   1      10.340  32.182   7.458  0.00  0.00    +0.239 C 
ATOM     25  N   THR A   2      10.320  31.618   8.660  0.00  0.00    -0.295 N 
ATOM     26  H   THR A   2       9.494  31.746   9.279  0.00  0.00    +0.150 HD
ATOM     27  O   PRO A   1      11.355  32.222   6.753  0.00  0.00    -0.274 OA
BRANCH  24  32
ATOM     28  N   PRO A   1       8.413  33.725   7.944  0.00  0.00    -0.210 NA
ATOM     29  CD  PRO A   1       8.511  35.127   7.483  0.00  0.00    +0.089 C 
ATOM     30  CG  PRO A   1       9.420  35.037   6.302  0.00  0.00    +0.021 C 
ATOM     31  CB  PRO A   1       9.220  33.673   5.738  0.00  0.00    +0.028 C 
ATOM     32  CA  PRO A   1       9.019  32.794   6.982  0.00  0.00    +0.149 C 
ENDBRANCH  24  32
ENDBRANCH  23  25
BRANCH  23  33
ATOM     33  CB  THR A   2      11.449  30.638  10.626  0.00  0.00    +0.137 C 
ATOM     34  CG2 THR A   2      10.119  30.059  11.133  0.00  0.00    +0.034 C 
BRANCH  33  35
ATOM     35  OG1 THR A   2      12.544  29.795  10.996  0.00  0.00    -0.382 OA
ATOM     36  HG1 THR A   2      12.446  28.915  10.553  0.00  0.00    +0.210 HD
ENDBRANCH  33  35
ENDBRANCH  23  33
ENDBRANCH  16  23
ENDBRANCH  12  22
ENDBRANCH  11  13
BRANCH  11  37
ATOM     37  CB  VAL A   4      13.504  25.059  11.230  0.00  0.00    +0.027 C 
ATOM     38  CG2 VAL A   4      14.422  26.151  11.756  0.00  0.00    +0.002 C 
ATOM     39  CG1 VAL A   4      14.174  24.290  10.096  0.00  0.00    +0.002 C 
ENDBRANCH  11  37
ENDBRANCH   7  11
ENDBRANCH   6   8
BRANCH   6  40
ATOM     40  CB  ASN A   5       8.838  25.076  14.310  0.00  0.00    +0.114 C 
BRANCH  40  41
ATOM     41  CG  ASN A   5       7.630  25.172  13.399  0.00  0.00    +0.222 C 
ATOM     42  OD1 ASN A   5       7.127  26.260  13.125  0.00  0.00    -0.275 OA
ATOM     43  ND2 ASN A   5       7.134  24.013  12.956  0.00  0.00    -0.329 N 
ATOM     44 HD21 ASN A   5       7.595  23.117  13.215  0.00  0.00    +0.145 HD
ATOM     45 HD22 ASN A   5       6.287  24.007  12.352  0.00  0.00    +0.145 HD
ENDBRANCH  40  41
ENDBRANCH   6  40
ENDBRANCH   2   6
ENDBRANCH   1   3
BRANCH   1  46
ATOM     46  C   ILE A   6      11.598  27.578  18.096  0.00  0.00    +0.241 C 
ATOM     47  N   ILE A   7      11.881  26.739  19.094  0.00  0.00    -0.297 N 
ATOM     48  H   ILE A   7      12.390  25.858  18.881  0.00  0.00    +0.150 HD
ATOM     49  O   ILE A   6      10.873  28.573  18.238  0.00  0.00    -0.273 OA
BRANCH  47  50
ATOM     50  CA  ILE A   7      11.500  27.017  20.473  0.00  0.00    +0.149 C 
BRANCH  50  51
ATOM     51  C   ILE A   7      12.701  27.669  21.142  0.00  0.00    +0.241 C 
ATOM     52  N   GLY A   8      12.514  28.929  21.522  0.00  0.00    -0.295 N 
ATOM     53  H   GLY A   8      11.567  29.344  21.409  0.00  0.00    +0.150 HD
ATOM     54  O   ILE A   7      13.766  27.049  21.289  0.00  0.00    -0.273 OA
BRANCH  52  55
ATOM     55  CA  GLY A   8      13.566  29.756  22.087  0.00  0.00    +0.176 C 
BRANCH  55  56
ATOM     56  C   GLY A   8      13.557  29.774  23.594  0.00  0.00    +0.243 C 
ATOM     57  O   GLY A   8      12.687  29.175  24.243  0.00  0.00    -0.273 OA
ATOM     58  N   ARG A   9      14.488  30.534  24.162  0.00  0.00    -0.297 N 
ATOM     59  H   ARG A   9      15.082  31.149  23.571  0.00  0.00    +0.150 HD
BRANCH  58  60
ATOM     60  CA  ARG A   9      14.682  30.513  25.595  0.00  0.00    +0.149 C 
BRANCH  60  61
ATOM     61  C   ARG A   9      13.477  31.022  26.350  0.00  0.00    +0.241 C 
ATOM     62  O   ARG A   9      13.279  30.608  27.499  0.00  0.00    -0.273 OA
ATOM     63  N   ASN A  10      12.686  31.910  25.739  0.00  0.00    -0.298 N 
ATOM     64  H   ASN A  10      12.913  32.245  24.781  0.00  0.00    +0.150 HD
BRANCH  63  65
ATOM     65  CA  ASN A  10      11.485  32.410  26.441  0.00  0.00    +0.146 C 
BRANCH  65  66
ATOM     66  C   ASN A  10      10.544  31.304  26.889  0.00  0.00    +0.227 C 
ATOM     67  O   ASN A  10       9.912  31.434  27.924  0.00  0.00    -0.286 OA
ENDBRANCH  65  66
BRANCH  65  68
ATOM     68  CB  ASN A  10      10.709  33.456  25.628  0.00  0.00    +0.112 C 
BRANCH  68  69
ATOM     69  CG  ASN A  10       9.991  32.875  24.434  0.00  0.00    +0.222 C 
ATOM     70  ND2 ASN A  10       8.683  33.148  24.313  0.00  0.00    -0.329 N 
ATOM     71 HD21 ASN A  10       8.207  33.738  25.025  0.00  0.00    +0.145 HD
ATOM     72 HD22 ASN A  10       8.145  32.770  23.507  0.00  0.00    +0.145 HD
ATOM     73  OD1 ASN A  10      10.599  32.189  23.628  0.00  0.00    -0.275 OA
ENDBRANCH  68  69
ENDBRANCH  65  68
ENDBRANCH  63  65
ENDBRANCH  60  61
BRANCH  60  74
ATOM     74  CB  ARG A   9      15.925  31.305  26.007  0.00  0.00    +0.033 C 
BRANCH  74  75
ATOM     75  CG  ARG A   9      17.231  30.673  25.549  0.00  0.00    +0.045 C 
BRANCH  75  76
ATOM     76  CD  ARG A   9      18.478  31.436  26.036  0.00  0.00    +0.174 C 
BRANCH  76  77
ATOM     77  NE  ARG A   9      18.494  32.819  25.567  0.00  0.00    -0.265 N 
ATOM     78  CZ  ARG A   9      18.142  33.900  26.272  0.00  0.00    +0.342 C 
ATOM     79  NH2 ARG A   9      17.757  33.809  27.545  0.00  0.00    -0.292 N 
ATOM     80 HH21 ARG A   9      17.489  34.666  28.070  0.00  0.00    +0.255 HD
ATOM     81 HH22 ARG A   9      17.725  32.881  28.014  0.00  0.00    +0.255 HD
ATOM     82  NH1 ARG A   9      18.208  35.090  25.692  0.00  0.00    -0.292 N 
ATOM     83 HH11 ARG A   9      17.939  35.943  26.223  0.00  0.00    +0.255 HD
ATOM     84 HH12 ARG A   9      18.529  35.171  24.706  0.00  0.00    +0.255 HD
ATOM     85  HE  ARG A   9      18.810  32.979  24.589  0.00  0.00    +0.259 HD
ENDBRANCH  76  77
ENDBRANCH  75  76
ENDBRANCH  74  75
ENDBRANCH  60  74
ENDBRANCH  58  60
ENDBRANCH  55  56
ENDBRANCH  52  55
ENDBRANCH  50  51
BRANCH  50  86
ATOM     86  CB  ILE A   7      11.084  25.766  21.270  0.00  0.00    +0.027 C 
ATOM     87  CG2 ILE A   7      10.665  26.176  22.697  0.00  0.00    +0.002 C 
BRANCH  86  88
ATOM     88  CG1 ILE A   7       9.981  25.006  20.539  0.00  0.00    +0.002 C 
ATOM     89  CD1 ILE A   7       8.750  25.877  20.170  0.00  0.00    +0.000 C 
ENDBRANCH  86  88
ENDBRANCH  50  86
ENDBRANCH  47  50
ENDBRANCH   1  46
BRANCH   1  90
ATOM     90  CB  ILE A   6      13.104  28.431  16.305  0.00  0.00    +0.027 C 
ATOM     91  CG2 ILE A   6      14.051  28.849  17.428  0.00  0.00    +0.002 C 
BRANCH  90  92
ATOM     92  CG1 ILE A   6      13.906  28.069  15.055  0.00  0.00    +0.002 C 
ATOM     93  CD1 ILE A   6      14.494  29.272  14.352  0.00  0.00    +0.000 C 
ENDBRANCH  90  92
ENDBRANCH   1  90
TORSDOF 33
REMARK  Name = ../refined-set-2016/4djo/4djo_pocket.pdb
REMARK  227 active torsions:
REMARK  status: ('A' for Active; 'I' for Inactive)
REMARK    1  A    between atoms: _1  and  _3
REMARK    2  A    between atoms: _3  and  _4
REMARK    3  A    between atoms: _3  and  _6
REMARK    4  A    between atoms: _6  and  _7
REMARK    5  A    between atoms: _7  and  _8
REMARK    6  A    between atoms: _8  and  _9
REMARK    7  A    between atoms: _18  and  _20
REMARK    8  A    between atoms: _20  and  _21
REMARK    9  A    between atoms: _20  and  _23
REMARK   10  A    between atoms: _23  and  _24
REMARK   11  A    between atoms: _27  and  _29
REMARK   12  A    between atoms: _29  and  _30
REMARK   13  A    between atoms: _29  and  _32
REMARK   14  A    between atoms: _32  and  _33
REMARK   15  A    between atoms: _36  and  _38
REMARK   16  A    between atoms: _38  and  _39
REMARK   17  A    between atoms: _38  and  _41
REMARK   18  A    between atoms: _41  and  _42
REMARK   19  A    between atoms: _45  and  _47
REMARK   20  A    between atoms: _47  and  _48
REMARK   21  A    between atoms: _47  and  _50
REMARK   22  A    between atoms: _50  and  _51
REMARK   23  A    between atoms: _54  and  _56
REMARK   24  A    between atoms: _56  and  _57
REMARK   25  A    between atoms: _59  and  _61
REMARK   26  A    between atoms: _61  and  _62
REMARK   27  A    between atoms: _65  and  _67
REMARK   28  A    between atoms: _67  and  _68
REMARK   29  A    between atoms: _67  and  _70
REMARK   30  A    between atoms: _70  and  _71
REMARK   31  A    between atoms: _74  and  _76
REMARK   32  A    between atoms: _76  and  _77
REMARK   33  A    between atoms: _76  and  _79
REMARK   34  A    between atoms: _79  and  _80
REMARK   35  A    between atoms: _83  and  _85
REMARK   36  A    between atoms: _85  and  _86
REMARK   37  A    between atoms: _85  and  _88
REMARK   38  A    between atoms: _88  and  _89
REMARK   39  A    between atoms: _92  and  _94
REMARK   40  A    between atoms: _94  and  _95
REMARK   41  A    between atoms: _94  and  _97
REMARK   42  A    between atoms: _100  and  _102
REMARK   43  A    between atoms: _102  and  _103
REMARK   44  A    between atoms: _102  and  _105
REMARK   45  A    between atoms: _105  and  _106
REMARK   46  A    between atoms: _106  and  _107
REMARK   47  A    between atoms: _109  and  _111
REMARK   48  A    between atoms: _111  and  _112
REMARK   49  A    between atoms: _111  and  _114
REMARK   50  A    between atoms: _114  and  _115
REMARK   51  A    between atoms: _118  and  _120
REMARK   52  A    between atoms: _120  and  _121
REMARK   53  A    between atoms: _123  and  _125
REMARK   54  A    between atoms: _125  and  _126
REMARK   55  A    between atoms: _128  and  _130
REMARK   56  A    between atoms: _130  and  _131
REMARK   57  A    between atoms: _130  and  _133
REMARK   58  A    between atoms: _133  and  _134
REMARK   59  A    between atoms: _137  and  _139
REMARK   60  A    between atoms: _139  and  _140
REMARK   61  A    between atoms: _142  and  _144
REMARK   62  A    between atoms: _144  and  _145
REMARK   63  A    between atoms: _147  and  _149
REMARK   64  A    between atoms: _149  and  _150
REMARK   65  A    between atoms: _149  and  _152
REMARK   66  A    between atoms: _152  and  _153
REMARK   67  A    between atoms: _159  and  _161
REMARK   68  A    between atoms: _161  and  _162
REMARK   69  A    between atoms: _161  and  _164
REMARK   70  A    between atoms: _164  and  _165
REMARK   71  A    between atoms: _168  and  _170
REMARK   72  A    between atoms: _170  and  _171
REMARK   73  A    between atoms: _170  and  _173
REMARK   74  A    between atoms: _176  and  _178
REMARK   75  A    between atoms: _178  and  _179
REMARK   76  A    between atoms: _178  and  _181
REMARK   77  A    between atoms: _181  and  _182
REMARK   78  A    between atoms: _186  and  _187
REMARK   79  A    between atoms: _192  and  _194
REMARK   80  A    between atoms: _194  and  _195
REMARK   81  A    between atoms: _194  and  _197
REMARK   82  A    between atoms: _197  and  _198
REMARK   83  A    between atoms: _202  and  _203
REMARK   84  A    between atoms: _208  and  _210
REMARK   85  A    between atoms: _210  and  _211
REMARK   86  A    between atoms: _210  and  _213
REMARK   87  A    between atoms: _216  and  _218
REMARK   88  A    between atoms: _218  and  _219
REMARK   89  A    between atoms: _218  and  _221
REMARK   90  A    between atoms: _221  and  _222
REMARK   91  A    between atoms: _227  and  _229
REMARK   92  A    between atoms: _229  and  _230
REMARK   93  A    between atoms: _229  and  _232
REMARK   94  A    between atoms: _232  and  _233
REMARK   95  A    between atoms: _236  and  _238
REMARK   96  A    between atoms: _238  and  _239
REMARK   97  A    between atoms: _238  and  _241
REMARK   98  A    between atoms: _241  and  _242
REMARK   99  A    between atoms: _245  and  _247
REMARK  100  A    between atoms: _247  and  _248
REMARK  101  A    between atoms: _250  and  _252
REMARK  102  A    between atoms: _252  and  _253
REMARK  103  A    between atoms: _252  and  _255
REMARK  104  A    between atoms: _255  and  _256
REMARK  105  A    between atoms: _256  and  _257
REMARK  106  A    between atoms: _257  and  _258
REMARK  107  A    between atoms: _267  and  _269
REMARK  108  A    between atoms: _269  and  _270
REMARK  109  A    between atoms: _269  and  _272
REMARK  110  A    between atoms: _272  and  _273
REMARK  111  A    between atoms: _278  and  _280
REMARK  112  A    between atoms: _280  and  _281
REMARK  113  A    between atoms: _280  and  _283
REMARK  114  A    between atoms: _283  and  _284
REMARK  115  A    between atoms: _284  and  _285
REMARK  116  A    between atoms: _285  and  _286
REMARK  117  A    between atoms: _295  and  _297
REMARK  118  A    between atoms: _297  and  _298
REMARK  119  A    between atoms: _297  and  _300
REMARK  120  A    between atoms: _300  and  _301
REMARK  121  A    between atoms: _304  and  _306
REMARK  122  A    between atoms: _306  and  _307
REMARK  123  A    between atoms: _306  and  _309
REMARK  124  A    between atoms: _309  and  _310
REMARK  125  A    between atoms: _313  and  _315
REMARK  126  A    between atoms: _315  and  _316
REMARK  127  A    between atoms: _315  and  _318
REMARK  128  A    between atoms: _318  and  _319
REMARK  129  A    between atoms: _322  and  _324
REMARK  130  A    between atoms: _324  and  _325
REMARK  131  A    between atoms: _324  and  _327
REMARK  132  A    between atoms: _327  and  _328
REMARK  133  A    between atoms: _331  and  _333
REMARK  134  A    between atoms: _333  and  _334
REMARK  135  A    between atoms: _336  and  _338
REMARK  136  A    between atoms: _338  and  _339
REMARK  137  A    between atoms: _342  and  _344
REMARK  138  A    between atoms: _344  and  _345
REMARK  139  A    between atoms: _344  and  _347
REMARK  140  A    between atoms: _347  and  _348
REMARK  141  A    between atoms: _351  and  _353
REMARK  142  A    between atoms: _353  and  _354
REMARK  143  A    between atoms: _353  and  _356
REMARK  144  A    between atoms: _356  and  _357
REMARK  145  A    between atoms: _360  and  _362
REMARK  146  A    between atoms: _362  and  _363
REMARK  147  A    between atoms: _362  and  _365
REMARK  148  A    between atoms: _365  and  _366
REMARK  149  A    between atoms: _369  and  _371
REMARK  150  A    between atoms: _371  and  _372
REMARK  151  A    between atoms: _371  and  _374
REMARK  152  A    between atoms: _377  and  _379
REMARK  153  A    between atoms: _379  and  _380
REMARK  154  A    between atoms: _379  and  _382
REMARK  155  A    between atoms: _382  and  _383
REMARK  156  A    between atoms: _383  and  _384
REMARK  157  A    between atoms: _384  and  _385
REMARK  158  A    between atoms: _385  and  _386
REMARK  159  A    between atoms: _390  and  _392
REMARK  160  A    between atoms: _392  and  _393
REMARK  161  A    between atoms: _392  and  _395
REMARK  162  A    between atoms: _395  and  _396
REMARK  163  A    between atoms: _396  and  _397
REMARK  164  A    between atoms: _399  and  _401
REMARK  165  A    between atoms: _401  and  _402
REMARK  166  A    between atoms: _401  and  _404
REMARK  167  A    between atoms: _404  and  _405
REMARK  168  A    between atoms: _408  and  _410
REMARK  169  A    between atoms: _410  and  _411
REMARK  170  A    between atoms: _413  and  _415
REMARK  171  A    between atoms: _415  and  _416
REMARK  172  A    between atoms: _418  and  _420
REMARK  173  A    between atoms: _420  and  _421
REMARK  174  A    between atoms: _420  and  _423
REMARK  175  A    between atoms: _423  and  _424
REMARK  176  A    between atoms: _427  and  _429
REMARK  177  A    between atoms: _429  and  _430
REMARK  178  A    between atoms: _432  and  _434
REMARK  179  A    between atoms: _434  and  _435
REMARK  180  A    between atoms: _437  and  _439
REMARK  181  A    between atoms: _439  and  _440
REMARK  182  A    between atoms: _439  and  _442
REMARK  183  A    between atoms: _442  and  _443
REMARK  184  A    between atoms: _449  and  _451
REMARK  185  A    between atoms: _451  and  _452
REMARK  186  A    between atoms: _451  and  _454
REMARK  187  A    between atoms: _454  and  _455
REMARK  188  A    between atoms: _458  and  _460
REMARK  189  A    between atoms: _460  and  _461
REMARK  190  A    between atoms: _460  and  _463
REMARK  191  A    between atoms: _466  and  _468
REMARK  192  A    between atoms: _468  and  _469
REMARK  193  A    between atoms: _468  and  _471
REMARK  194  A    between atoms: _471  and  _472
REMARK  195  A    between atoms: _476  and  _477
REMARK  196  A    between atoms: _482  and  _484
REMARK  197  A    between atoms: _484  and  _485
REMARK  198  A    between atoms: _484  and  _487
REMARK  199  A    between atoms: _487  and  _488
REMARK  200  A    between atoms: _492  and  _493
REMARK  201  A    between atoms: _498  and  _500
REMARK  202  A    between atoms: _500  and  _501
REMARK  203  A    between atoms: _500  and  _503
REMARK  204  A    between atoms: _506  and  _508
REMARK  205  A    between atoms: _508  and  _509
REMARK  206  A    between atoms: _508  and  _511
REMARK  207  A    between atoms: _511  and  _512
REMARK  208  A    between atoms: _517  and  _519
REMARK  209  A    between atoms: _519  and  _520
REMARK  210  A    between atoms: _519  and  _522
REMARK  211  A    between atoms: _522  and  _523
REMARK  212  A    between atoms: _526  and  _528
REMARK  213  A    between atoms: _528  and  _529
REMARK  214  A    between atoms: _528  and  _531
REMARK  215  A    between atoms: _531  and  _532
REMARK  216  A    between atoms: _535  and  _537
REMARK  217  A    between atoms: _537  and  _538
REMARK  218  A    between atoms: _540  and  _542
REMARK  219  A    between atoms: _542  and  _543
REMARK  220  A    between atoms: _542  and  _545
REMARK  221  A    between atoms: _545  and  _546
REMARK  222  A    between atoms: _546  and  _547
REMARK  223  A    between atoms: _547  and  _548
REMARK  224  A    between atoms: _557  and  _559
REMARK  225  A    between atoms: _559  and  _560
REMARK  226  A    between atoms: _559  and  _562
REMARK  227  A    between atoms: _562  and  _563
REMARK                            x       y       z     vdW  Elec       q    Type
REMARK                         _______ _______ _______ _____ _____    ______ ____
ROOT
ATOM      1  O   HOH     1      20.135  21.388  15.617  0.00  0.00    +0.000 OA
ENDROOT
TORSDOF 0
REMARK  Name = ../refined-set-2016/4djo/4djo_pocket.pdb
REMARK  227 active torsions:
REMARK  status: ('A' for Active; 'I' for Inactive)
REMARK    1  A    between atoms: _1  and  _3
REMARK    2  A    between atoms: _3  and  _4
REMARK    3  A    between atoms: _3  and  _6
REMARK    4  A    between atoms: _6  and  _7
REMARK    5  A    between atoms: _7  and  _8
REMARK    6  A    between atoms: _8  and  _9
REMARK    7  A    between atoms: _18  and  _20
REMARK    8  A    between atoms: _20  and  _21
REMARK    9  A    between atoms: _20  and  _23
REMARK   10  A    between atoms: _23  and  _24
REMARK   11  A    between atoms: _27  and  _29
REMARK   12  A    between atoms: _29  and  _30
REMARK   13  A    between atoms: _29  and  _32
REMARK   14  A    between atoms: _32  and  _33
REMARK   15  A    between atoms: _36  and  _38
REMARK   16  A    between atoms: _38  and  _39
REMARK   17  A    between atoms: _38  and  _41
REMARK   18  A    between atoms: _41  and  _42
REMARK   19  A    between atoms: _45  and  _47
REMARK   20  A    between atoms: _47  and  _48
REMARK   21  A    between atoms: _47  and  _50
REMARK   22  A    between atoms: _50  and  _51
REMARK   23  A    between atoms: _54  and  _56
REMARK   24  A    between atoms: _56  and  _57
REMARK   25  A    between atoms: _59  and  _61
REMARK   26  A    between atoms: _61  and  _62
REMARK   27  A    between atoms: _65  and  _67
REMARK   28  A    between atoms: _67  and  _68
REMARK   29  A    between atoms: _67  and  _70
REMARK   30  A    between atoms: _70  and  _71
REMARK   31  A    between atoms: _74  and  _76
REMARK   32  A    between atoms: _76  and  _77
REMARK   33  A    between atoms: _76  and  _79
REMARK   34  A    between atoms: _79  and  _80
REMARK   35  A    between atoms: _83  and  _85
REMARK   36  A    between atoms: _85  and  _86
REMARK   37  A    between atoms: _85  and  _88
REMARK   38  A    between atoms: _88  and  _89
REMARK   39  A    between atoms: _92  and  _94
REMARK   40  A    between atoms: _94  and  _95
REMARK   41  A    between atoms: _94  and  _97
REMARK   42  A    between atoms: _100  and  _102
REMARK   43  A    between atoms: _102  and  _103
REMARK   44  A    between atoms: _102  and  _105
REMARK   45  A    between atoms: _105  and  _106
REMARK   46  A    between atoms: _106  and  _107
REMARK   47  A    between atoms: _109  and  _111
REMARK   48  A    between atoms: _111  and  _112
REMARK   49  A    between atoms: _111  and  _114
REMARK   50  A    between atoms: _114  and  _115
REMARK   51  A    between atoms: _118  and  _120
REMARK   52  A    between atoms: _120  and  _121
REMARK   53  A    between atoms: _123  and  _125
REMARK   54  A    between atoms: _125  and  _126
REMARK   55  A    between atoms: _128  and  _130
REMARK   56  A    between atoms: _130  and  _131
REMARK   57  A    between atoms: _130  and  _133
REMARK   58  A    between atoms: _133  and  _134
REMARK   59  A    between atoms: _137  and  _139
REMARK   60  A    between atoms: _139  and  _140
REMARK   61  A    between atoms: _142  and  _144
REMARK   62  A    between atoms: _144  and  _145
REMARK   63  A    between atoms: _147  and  _149
REMARK   64  A    between atoms: _149  and  _150
REMARK   65  A    between atoms: _149  and  _152
REMARK   66  A    between atoms: _152  and  _153
REMARK   67  A    between atoms: _159  and  _161
REMARK   68  A    between atoms: _161  and  _162
REMARK   69  A    between atoms: _161  and  _164
REMARK   70  A    between atoms: _164  and  _165
REMARK   71  A    between atoms: _168  and  _170
REMARK   72  A    between atoms: _170  and  _171
REMARK   73  A    between atoms: _170  and  _173
REMARK   74  A    between atoms: _176  and  _178
REMARK   75  A    between atoms: _178  and  _179
REMARK   76  A    between atoms: _178  and  _181
REMARK   77  A    between atoms: _181  and  _182
REMARK   78  A    between atoms: _186  and  _187
REMARK   79  A    between atoms: _192  and  _194
REMARK   80  A    between atoms: _194  and  _195
REMARK   81  A    between atoms: _194  and  _197
REMARK   82  A    between atoms: _197  and  _198
REMARK   83  A    between atoms: _202  and  _203
REMARK   84  A    between atoms: _208  and  _210
REMARK   85  A    between atoms: _210  and  _211
REMARK   86  A    between atoms: _210  and  _213
REMARK   87  A    between atoms: _216  and  _218
REMARK   88  A    between atoms: _218  and  _219
REMARK   89  A    between atoms: _218  and  _221
REMARK   90  A    between atoms: _221  and  _222
REMARK   91  A    between atoms: _227  and  _229
REMARK   92  A    between atoms: _229  and  _230
REMARK   93  A    between atoms: _229  and  _232
REMARK   94  A    between atoms: _232  and  _233
REMARK   95  A    between atoms: _236  and  _238
REMARK   96  A    between atoms: _238  and  _239
REMARK   97  A    between atoms: _238  and  _241
REMARK   98  A    between atoms: _241  and  _242
REMARK   99  A    between atoms: _245  and  _247
REMARK  100  A    between atoms: _247  and  _248
REMARK  101  A    between atoms: _250  and  _252
REMARK  102  A    between atoms: _252  and  _253
REMARK  103  A    between atoms: _252  and  _255
REMARK  104  A    between atoms: _255  and  _256
REMARK  105  A    between atoms: _256  and  _257
REMARK  106  A    between atoms: _257  and  _258
REMARK  107  A    between atoms: _267  and  _269
REMARK  108  A    between atoms: _269  and  _270
REMARK  109  A    between atoms: _269  and  _272
REMARK  110  A    between atoms: _272  and  _273
REMARK  111  A    between atoms: _278  and  _280
REMARK  112  A    between atoms: _280  and  _281
REMARK  113  A    between atoms: _280  and  _283
REMARK  114  A    between atoms: _283  and  _284
REMARK  115  A    between atoms: _284  and  _285
REMARK  116  A    between atoms: _285  and  _286
REMARK  117  A    between atoms: _295  and  _297
REMARK  118  A    between atoms: _297  and  _298
REMARK  119  A    between atoms: _297  and  _300
REMARK  120  A    between atoms: _300  and  _301
REMARK  121  A    between atoms: _304  and  _306
REMARK  122  A    between atoms: _306  and  _307
REMARK  123  A    between atoms: _306  and  _309
REMARK  124  A    between atoms: _309  and  _310
REMARK  125  A    between atoms: _313  and  _315
REMARK  126  A    between atoms: _315  and  _316
REMARK  127  A    between atoms: _315  and  _318
REMARK  128  A    between atoms: _318  and  _319
REMARK  129  A    between atoms: _322  and  _324
REMARK  130  A    between atoms: _324  and  _325
REMARK  131  A    between atoms: _324  and  _327
REMARK  132  A    between atoms: _327  and  _328
REMARK  133  A    between atoms: _331  and  _333
REMARK  134  A    between atoms: _333  and  _334
REMARK  135  A    between atoms: _336  and  _338
REMARK  136  A    between atoms: _338  and  _339
REMARK  137  A    between atoms: _342  and  _344
REMARK  138  A    between atoms: _344  and  _345
REMARK  139  A    between atoms: _344  and  _347
REMARK  140  A    between atoms: _347  and  _348
REMARK  141  A    between atoms: _351  and  _353
REMARK  142  A    between atoms: _353  and  _354
REMARK  143  A    between atoms: _353  and  _356
REMARK  144  A    between atoms: _356  and  _357
REMARK  145  A    between atoms: _360  and  _362
REMARK  146  A    between atoms: _362  and  _363
REMARK  147  A    between atoms: _362  and  _365
REMARK  148  A    between atoms: _365  and  _366
REMARK  149  A    between atoms: _369  and  _371
REMARK  150  A    between atoms: _371  and  _372
REMARK  151  A    between atoms: _371  and  _374
REMARK  152  A    between atoms: _377  and  _379
REMARK  153  A    between atoms: _379  and  _380
REMARK  154  A    between atoms: _379  and  _382
REMARK  155  A    between atoms: _382  and  _383
REMARK  156  A    between atoms: _383  and  _384
REMARK  157  A    between atoms: _384  and  _385
REMARK  158  A    between atoms: _385  and  _386
REMARK  159  A    between atoms: _390  and  _392
REMARK  160  A    between atoms: _392  and  _393
REMARK  161  A    between atoms: _392  and  _395
REMARK  162  A    between atoms: _395  and  _396
REMARK  163  A    between atoms: _396  and  _397
REMARK  164  A    between atoms: _399  and  _401
REMARK  165  A    between atoms: _401  and  _402
REMARK  166  A    between atoms: _401  and  _404
REMARK  167  A    between atoms: _404  and  _405
REMARK  168  A    between atoms: _408  and  _410
REMARK  169  A    between atoms: _410  and  _411
REMARK  170  A    between atoms: _413  and  _415
REMARK  171  A    between atoms: _415  and  _416
REMARK  172  A    between atoms: _418  and  _420
REMARK  173  A    between atoms: _420  and  _421
REMARK  174  A    between atoms: _420  and  _423
REMARK  175  A    between atoms: _423  and  _424
REMARK  176  A    between atoms: _427  and  _429
REMARK  177  A    between atoms: _429  and  _430
REMARK  178  A    between atoms: _432  and  _434
REMARK  179  A    between atoms: _434  and  _435
REMARK  180  A    between atoms: _437  and  _439
REMARK  181  A    between atoms: _439  and  _440
REMARK  182  A    between atoms: _439  and  _442
REMARK  183  A    between atoms: _442  and  _443
REMARK  184  A    between atoms: _449  and  _451
REMARK  185  A    between atoms: _451  and  _452
REMARK  186  A    between atoms: _451  and  _454
REMARK  187  A    between atoms: _454  and  _455
REMARK  188  A    between atoms: _458  and  _460
REMARK  189  A    between atoms: _460  and  _461
REMARK  190  A    between atoms: _460  and  _463
REMARK  191  A    between atoms: _466  and  _468
REMARK  192  A    between atoms: _468  and  _469
REMARK  193  A    between atoms: _468  and  _471
REMARK  194  A    between atoms: _471  and  _472
REMARK  195  A    between atoms: _476  and  _477
REMARK  196  A    between atoms: _482  and  _484
REMARK  197  A    between atoms: _484  and  _485
REMARK  198  A    between atoms: _484  and  _487
REMARK  199  A    between atoms: _487  and  _488
REMARK  200  A    between atoms: _492  and  _493
REMARK  201  A    between atoms: _498  and  _500
REMARK  202  A    between atoms: _500  and  _501
REMARK  203  A    between atoms: _500  and  _503
REMARK  204  A    between atoms: _506  and  _508
REMARK  205  A    between atoms: _508  and  _509
REMARK  206  A    between atoms: _508  and  _511
REMARK  207  A    between atoms: _511  and  _512
REMARK  208  A    between atoms: _517  and  _519
REMARK  209  A    between atoms: _519  and  _520
REMARK  210  A    between atoms: _519  and  _522
REMARK  211  A    between atoms: _522  and  _523
REMARK  212  A    between atoms: _526  and  _528
REMARK  213  A    between atoms: _528  and  _529
REMARK  214  A    between atoms: _528  and  _531
REMARK  215  A    between atoms: _531  and  _532
REMARK  216  A    between atoms: _535  and  _537
REMARK  217  A    between atoms: _537  and  _538
REMARK  218  A    between atoms: _540  and  _542
REMARK  219  A    between atoms: _542  and  _543
REMARK  220  A    between atoms: _542  and  _545
REMARK  221  A    between atoms: _545  and  _546
REMARK  222  A    between atoms: _546  and  _547
REMARK  223  A    between atoms: _547  and  _548
REMARK  224  A    between atoms: _557  and  _559
REMARK  225  A    between atoms: _559  and  _560
REMARK  226  A    between atoms: _559  and  _562
REMARK  227  A    between atoms: _562  and  _563
REMARK                            x       y       z     vdW  Elec       q    Type
REMARK                         _______ _______ _______ _____ _____    ______ ____
ROOT
ATOM      1  O   HOH     1      22.956  36.000  20.691  0.00  0.00    +0.000 OA
ENDROOT
TORSDOF 0
REMARK  Name = ../refined-set-2016/4djo/4djo_pocket.pdb
REMARK  227 active torsions:
REMARK  status: ('A' for Active; 'I' for Inactive)
REMARK    1  A    between atoms: _1  and  _3
REMARK    2  A    between atoms: _3  and  _4
REMARK    3  A    between atoms: _3  and  _6
REMARK    4  A    between atoms: _6  and  _7
REMARK    5  A    between atoms: _7  and  _8
REMARK    6  A    between atoms: _8  and  _9
REMARK    7  A    between atoms: _18  and  _20
REMARK    8  A    between atoms: _20  and  _21
REMARK    9  A    between atoms: _20  and  _23
REMARK   10  A    between atoms: _23  and  _24
REMARK   11  A    between atoms: _27  and  _29
REMARK   12  A    between atoms: _29  and  _30
REMARK   13  A    between atoms: _29  and  _32
REMARK   14  A    between atoms: _32  and  _33
REMARK   15  A    between atoms: _36  and  _38
REMARK   16  A    between atoms: _38  and  _39
REMARK   17  A    between atoms: _38  and  _41
REMARK   18  A    between atoms: _41  and  _42
REMARK   19  A    between atoms: _45  and  _47
REMARK   20  A    between atoms: _47  and  _48
REMARK   21  A    between atoms: _47  and  _50
REMARK   22  A    between atoms: _50  and  _51
REMARK   23  A    between atoms: _54  and  _56
REMARK   24  A    between atoms: _56  and  _57
REMARK   25  A    between atoms: _59  and  _61
REMARK   26  A    between atoms: _61  and  _62
REMARK   27  A    between atoms: _65  and  _67
REMARK   28  A    between atoms: _67  and  _68
REMARK   29  A    between atoms: _67  and  _70
REMARK   30  A    between atoms: _70  and  _71
REMARK   31  A    between atoms: _74  and  _76
REMARK   32  A    between atoms: _76  and  _77
REMARK   33  A    between atoms: _76  and  _79
REMARK   34  A    between atoms: _79  and  _80
REMARK   35  A    between atoms: _83  and  _85
REMARK   36  A    between atoms: _85  and  _86
REMARK   37  A    between atoms: _85  and  _88
REMARK   38  A    between atoms: _88  and  _89
REMARK   39  A    between atoms: _92  and  _94
REMARK   40  A    between atoms: _94  and  _95
REMARK   41  A    between atoms: _94  and  _97
REMARK   42  A    between atoms: _100  and  _102
REMARK   43  A    between atoms: _102  and  _103
REMARK   44  A    between atoms: _102  and  _105
REMARK   45  A    between atoms: _105  and  _106
REMARK   46  A    between atoms: _106  and  _107
REMARK   47  A    between atoms: _109  and  _111
REMARK   48  A    between atoms: _111  and  _112
REMARK   49  A    between atoms: _111  and  _114
REMARK   50  A    between atoms: _114  and  _115
REMARK   51  A    between atoms: _118  and  _120
REMARK   52  A    between atoms: _120  and  _121
REMARK   53  A    between atoms: _123  and  _125
REMARK   54  A    between atoms: _125  and  _126
REMARK   55  A    between atoms: _128  and  _130
REMARK   56  A    between atoms: _130  and  _131
REMARK   57  A    between atoms: _130  and  _133
REMARK   58  A    between atoms: _133  and  _134
REMARK   59  A    between atoms: _137  and  _139
REMARK   60  A    between atoms: _139  and  _140
REMARK   61  A    between atoms: _142  and  _144
REMARK   62  A    between atoms: _144  and  _145
REMARK   63  A    between atoms: _147  and  _149
REMARK   64  A    between atoms: _149  and  _150
REMARK   65  A    between atoms: _149  and  _152
REMARK   66  A    between atoms: _152  and  _153
REMARK   67  A    between atoms: _159  and  _161
REMARK   68  A    between atoms: _161  and  _162
REMARK   69  A    between atoms: _161  and  _164
REMARK   70  A    between atoms: _164  and  _165
REMARK   71  A    between atoms: _168  and  _170
REMARK   72  A    between atoms: _170  and  _171
REMARK   73  A    between atoms: _170  and  _173
REMARK   74  A    between atoms: _176  and  _178
REMARK   75  A    between atoms: _178  and  _179
REMARK   76  A    between atoms: _178  and  _181
REMARK   77  A    between atoms: _181  and  _182
REMARK   78  A    between atoms: _186  and  _187
REMARK   79  A    between atoms: _192  and  _194
REMARK   80  A    between atoms: _194  and  _195
REMARK   81  A    between atoms: _194  and  _197
REMARK   82  A    between atoms: _197  and  _198
REMARK   83  A    between atoms: _202  and  _203
REMARK   84  A    between atoms: _208  and  _210
REMARK   85  A    between atoms: _210  and  _211
REMARK   86  A    between atoms: _210  and  _213
REMARK   87  A    between atoms: _216  and  _218
REMARK   88  A    between atoms: _218  and  _219
REMARK   89  A    between atoms: _218  and  _221
REMARK   90  A    between atoms: _221  and  _222
REMARK   91  A    between atoms: _227  and  _229
REMARK   92  A    between atoms: _229  and  _230
REMARK   93  A    between atoms: _229  and  _232
REMARK   94  A    between atoms: _232  and  _233
REMARK   95  A    between atoms: _236  and  _238
REMARK   96  A    between atoms: _238  and  _239
REMARK   97  A    between atoms: _238  and  _241
REMARK   98  A    between atoms: _241  and  _242
REMARK   99  A    between atoms: _245  and  _247
REMARK  100  A    between atoms: _247  and  _248
REMARK  101  A    between atoms: _250  and  _252
REMARK  102  A    between atoms: _252  and  _253
REMARK  103  A    between atoms: _252  and  _255
REMARK  104  A    between atoms: _255  and  _256
REMARK  105  A    between atoms: _256  and  _257
REMARK  106  A    between atoms: _257  and  _258
REMARK  107  A    between atoms: _267  and  _269
REMARK  108  A    between atoms: _269  and  _270
REMARK  109  A    between atoms: _269  and  _272
REMARK  110  A    between atoms: _272  and  _273
REMARK  111  A    between atoms: _278  and  _280
REMARK  112  A    between atoms: _280  and  _281
REMARK  113  A    between atoms: _280  and  _283
REMARK  114  A    between atoms: _283  and  _284
REMARK  115  A    between atoms: _284  and  _285
REMARK  116  A    between atoms: _285  and  _286
REMARK  117  A    between atoms: _295  and  _297
REMARK  118  A    between atoms: _297  and  _298
REMARK  119  A    between atoms: _297  and  _300
REMARK  120  A    between atoms: _300  and  _301
REMARK  121  A    between atoms: _304  and  _306
REMARK  122  A    between atoms: _306  and  _307
REMARK  123  A    between atoms: _306  and  _309
REMARK  124  A    between atoms: _309  and  _310
REMARK  125  A    between atoms: _313  and  _315
REMARK  126  A    between atoms: _315  and  _316
REMARK  127  A    between atoms: _315  and  _318
REMARK  128  A    between atoms: _318  and  _319
REMARK  129  A    between atoms: _322  and  _324
REMARK  130  A    between atoms: _324  and  _325
REMARK  131  A    between atoms: _324  and  _327
REMARK  132  A    between atoms: _327  and  _328
REMARK  133  A    between atoms: _331  and  _333
REMARK  134  A    between atoms: _333  and  _334
REMARK  135  A    between atoms: _336  and  _338
REMARK  136  A    between atoms: _338  and  _339
REMARK  137  A    between atoms: _342  and  _344
REMARK  138  A    between atoms: _344  and  _345
REMARK  139  A    between atoms: _344  and  _347
REMARK  140  A    between atoms: _347  and  _348
REMARK  141  A    between atoms: _351  and  _353
REMARK  142  A    between atoms: _353  and  _354
REMARK  143  A    between atoms: _353  and  _356
REMARK  144  A    between atoms: _356  and  _357
REMARK  145  A    between atoms: _360  and  _362
REMARK  146  A    between atoms: _362  and  _363
REMARK  147  A    between atoms: _362  and  _365
REMARK  148  A    between atoms: _365  and  _366
REMARK  149  A    between atoms: _369  and  _371
REMARK  150  A    between atoms: _371  and  _372
REMARK  151  A    between atoms: _371  and  _374
REMARK  152  A    between atoms: _377  and  _379
REMARK  153  A    between atoms: _379  and  _380
REMARK  154  A    between atoms: _379  and  _382
REMARK  155  A    between atoms: _382  and  _383
REMARK  156  A    between atoms: _383  and  _384
REMARK  157  A    between atoms: _384  and  _385
REMARK  158  A    between atoms: _385  and  _386
REMARK  159  A    between atoms: _390  and  _392
REMARK  160  A    between atoms: _392  and  _393
REMARK  161  A    between atoms: _392  and  _395
REMARK  162  A    between atoms: _395  and  _396
REMARK  163  A    between atoms: _396  and  _397
REMARK  164  A    between atoms: _399  and  _401
REMARK  165  A    between atoms: _401  and  _402
REMARK  166  A    between atoms: _401  and  _404
REMARK  167  A    between atoms: _404  and  _405
REMARK  168  A    between atoms: _408  and  _410
REMARK  169  A    between atoms: _410  and  _411
REMARK  170  A    between atoms: _413  and  _415
REMARK  171  A    between atoms: _415  and  _416
REMARK  172  A    between atoms: _418  and  _420
REMARK  173  A    between atoms: _420  and  _421
REMARK  174  A    between atoms: _420  and  _423
REMARK  175  A    between atoms: _423  and  _424
REMARK  176  A    between atoms: _427  and  _429
REMARK  177  A    between atoms: _429  and  _430
REMARK  178  A    between atoms: _432  and  _434
REMARK  179  A    between atoms: _434  and  _435
REMARK  180  A    between atoms: _437  and  _439
REMARK  181  A    between atoms: _439  and  _440
REMARK  182  A    between atoms: _439  and  _442
REMARK  183  A    between atoms: _442  and  _443
REMARK  184  A    between atoms: _449  and  _451
REMARK  185  A    between atoms: _451  and  _452
REMARK  186  A    between atoms: _451  and  _454
REMARK  187  A    between atoms: _454  and  _455
REMARK  188  A    between atoms: _458  and  _460
REMARK  189  A    between atoms: _460  and  _461
REMARK  190  A    between atoms: _460  and  _463
REMARK  191  A    between atoms: _466  and  _468
REMARK  192  A    between atoms: _468  and  _469
REMARK  193  A    between atoms: _468  and  _471
REMARK  194  A    between atoms: _471  and  _472
REMARK  195  A    between atoms: _476  and  _477
REMARK  196  A    between atoms: _482  and  _484
REMARK  197  A    between atoms: _484  and  _485
REMARK  198  A    between atoms: _484  and  _487
REMARK  199  A    between atoms: _487  and  _488
REMARK  200  A    between atoms: _492  and  _493
REMARK  201  A    between atoms: _498  and  _500
REMARK  202  A    between atoms: _500  and  _501
REMARK  203  A    between atoms: _500  and  _503
REMARK  204  A    between atoms: _506  and  _508
REMARK  205  A    between atoms: _508  and  _509
REMARK  206  A    between atoms: _508  and  _511
REMARK  207  A    between atoms: _511  and  _512
REMARK  208  A    between atoms: _517  and  _519
REMARK  209  A    between atoms: _519  and  _520
REMARK  210  A    between atoms: _519  and  _522
REMARK  211  A    between atoms: _522  and  _523
REMARK  212  A    between atoms: _526  and  _528
REMARK  213  A    between atoms: _528  and  _529
REMARK  214  A    between atoms: _528  and  _531
REMARK  215  A    between atoms: _531  and  _532
REMARK  216  A    between atoms: _535  and  _537
REMARK  217  A    between atoms: _537  and  _538
REMARK  218  A    between atoms: _540  and  _542
REMARK  219  A    between atoms: _542  and  _543
REMARK  220  A    between atoms: _542  and  _545
REMARK  221  A    between atoms: _545  and  _546
REMARK  222  A    between atoms: _546  and  _547
REMARK  223  A    between atoms: _547  and  _548
REMARK  224  A    between atoms: _557  and  _559
REMARK  225  A    between atoms: _559  and  _560
REMARK  226  A    between atoms: _559  and  _562
REMARK  227  A    between atoms: _562  and  _563
REMARK                            x       y       z     vdW  Elec       q    Type
REMARK                         _______ _______ _______ _____ _____    ______ ____
ROOT
ATOM      1  O   HOH     1      19.525  22.758  13.146  0.00  0.00    +0.000 OA
ENDROOT
TORSDOF 0
REMARK  Name = ../refined-set-2016/4djo/4djo_pocket.pdb
REMARK  227 active torsions:
REMARK  status: ('A' for Active; 'I' for Inactive)
REMARK    1  A    between atoms: _1  and  _3
REMARK    2  A    between atoms: _3  and  _4
REMARK    3  A    between atoms: _3  and  _6
REMARK    4  A    between atoms: _6  and  _7
REMARK    5  A    between atoms: _7  and  _8
REMARK    6  A    between atoms: _8  and  _9
REMARK    7  A    between atoms: _18  and  _20
REMARK    8  A    between atoms: _20  and  _21
REMARK    9  A    between atoms: _20  and  _23
REMARK   10  A    between atoms: _23  and  _24
REMARK   11  A    between atoms: _27  and  _29
REMARK   12  A    between atoms: _29  and  _30
REMARK   13  A    between atoms: _29  and  _32
REMARK   14  A    between atoms: _32  and  _33
REMARK   15  A    between atoms: _36  and  _38
REMARK   16  A    between atoms: _38  and  _39
REMARK   17  A    between atoms: _38  and  _41
REMARK   18  A    between atoms: _41  and  _42
REMARK   19  A    between atoms: _45  and  _47
REMARK   20  A    between atoms: _47  and  _48
REMARK   21  A    between atoms: _47  and  _50
REMARK   22  A    between atoms: _50  and  _51
REMARK   23  A    between atoms: _54  and  _56
REMARK   24  A    between atoms: _56  and  _57
REMARK   25  A    between atoms: _59  and  _61
REMARK   26  A    between atoms: _61  and  _62
REMARK   27  A    between atoms: _65  and  _67
REMARK   28  A    between atoms: _67  and  _68
REMARK   29  A    between atoms: _67  and  _70
REMARK   30  A    between atoms: _70  and  _71
REMARK   31  A    between atoms: _74  and  _76
REMARK   32  A    between atoms: _76  and  _77
REMARK   33  A    between atoms: _76  and  _79
REMARK   34  A    between atoms: _79  and  _80
REMARK   35  A    between atoms: _83  and  _85
REMARK   36  A    between atoms: _85  and  _86
REMARK   37  A    between atoms: _85  and  _88
REMARK   38  A    between atoms: _88  and  _89
REMARK   39  A    between atoms: _92  and  _94
REMARK   40  A    between atoms: _94  and  _95
REMARK   41  A    between atoms: _94  and  _97
REMARK   42  A    between atoms: _100  and  _102
REMARK   43  A    between atoms: _102  and  _103
REMARK   44  A    between atoms: _102  and  _105
REMARK   45  A    between atoms: _105  and  _106
REMARK   46  A    between atoms: _106  and  _107
REMARK   47  A    between atoms: _109  and  _111
REMARK   48  A    between atoms: _111  and  _112
REMARK   49  A    between atoms: _111  and  _114
REMARK   50  A    between atoms: _114  and  _115
REMARK   51  A    between atoms: _118  and  _120
REMARK   52  A    between atoms: _120  and  _121
REMARK   53  A    between atoms: _123  and  _125
REMARK   54  A    between atoms: _125  and  _126
REMARK   55  A    between atoms: _128  and  _130
REMARK   56  A    between atoms: _130  and  _131
REMARK   57  A    between atoms: _130  and  _133
REMARK   58  A    between atoms: _133  and  _134
REMARK   59  A    between atoms: _137  and  _139
REMARK   60  A    between atoms: _139  and  _140
REMARK   61  A    between atoms: _142  and  _144
REMARK   62  A    between atoms: _144  and  _145
REMARK   63  A    between atoms: _147  and  _149
REMARK   64  A    between atoms: _149  and  _150
REMARK   65  A    between atoms: _149  and  _152
REMARK   66  A    between atoms: _152  and  _153
REMARK   67  A    between atoms: _159  and  _161
REMARK   68  A    between atoms: _161  and  _162
REMARK   69  A    between atoms: _161  and  _164
REMARK   70  A    between atoms: _164  and  _165
REMARK   71  A    between atoms: _168  and  _170
REMARK   72  A    between atoms: _170  and  _171
REMARK   73  A    between atoms: _170  and  _173
REMARK   74  A    between atoms: _176  and  _178
REMARK   75  A    between atoms: _178  and  _179
REMARK   76  A    between atoms: _178  and  _181
REMARK   77  A    between atoms: _181  and  _182
REMARK   78  A    between atoms: _186  and  _187
REMARK   79  A    between atoms: _192  and  _194
REMARK   80  A    between atoms: _194  and  _195
REMARK   81  A    between atoms: _194  and  _197
REMARK   82  A    between atoms: _197  and  _198
REMARK   83  A    between atoms: _202  and  _203
REMARK   84  A    between atoms: _208  and  _210
REMARK   85  A    between atoms: _210  and  _211
REMARK   86  A    between atoms: _210  and  _213
REMARK   87  A    between atoms: _216  and  _218
REMARK   88  A    between atoms: _218  and  _219
REMARK   89  A    between atoms: _218  and  _221
REMARK   90  A    between atoms: _221  and  _222
REMARK   91  A    between atoms: _227  and  _229
REMARK   92  A    between atoms: _229  and  _230
REMARK   93  A    between atoms: _229  and  _232
REMARK   94  A    between atoms: _232  and  _233
REMARK   95  A    between atoms: _236  and  _238
REMARK   96  A    between atoms: _238  and  _239
REMARK   97  A    between atoms: _238  and  _241
REMARK   98  A    between atoms: _241  and  _242
REMARK   99  A    between atoms: _245  and  _247
REMARK  100  A    between atoms: _247  and  _248
REMARK  101  A    between atoms: _250  and  _252
REMARK  102  A    between atoms: _252  and  _253
REMARK  103  A    between atoms: _252  and  _255
REMARK  104  A    between atoms: _255  and  _256
REMARK  105  A    between atoms: _256  and  _257
REMARK  106  A    between atoms: _257  and  _258
REMARK  107  A    between atoms: _267  and  _269
REMARK  108  A    between atoms: _269  and  _270
REMARK  109  A    between atoms: _269  and  _272
REMARK  110  A    between atoms: _272  and  _273
REMARK  111  A    between atoms: _278  and  _280
REMARK  112  A    between atoms: _280  and  _281
REMARK  113  A    between atoms: _280  and  _283
REMARK  114  A    between atoms: _283  and  _284
REMARK  115  A    between atoms: _284  and  _285
REMARK  116  A    between atoms: _285  and  _286
REMARK  117  A    between atoms: _295  and  _297
REMARK  118  A    between atoms: _297  and  _298
REMARK  119  A    between atoms: _297  and  _300
REMARK  120  A    between atoms: _300  and  _301
REMARK  121  A    between atoms: _304  and  _306
REMARK  122  A    between atoms: _306  and  _307
REMARK  123  A    between atoms: _306  and  _309
REMARK  124  A    between atoms: _309  and  _310
REMARK  125  A    between atoms: _313  and  _315
REMARK  126  A    between atoms: _315  and  _316
REMARK  127  A    between atoms: _315  and  _318
REMARK  128  A    between atoms: _318  and  _319
REMARK  129  A    between atoms: _322  and  _324
REMARK  130  A    between atoms: _324  and  _325
REMARK  131  A    between atoms: _324  and  _327
REMARK  132  A    between atoms: _327  and  _328
REMARK  133  A    between atoms: _331  and  _333
REMARK  134  A    between atoms: _333  and  _334
REMARK  135  A    between atoms: _336  and  _338
REMARK  136  A    between atoms: _338  and  _339
REMARK  137  A    between atoms: _342  and  _344
REMARK  138  A    between atoms: _344  and  _345
REMARK  139  A    between atoms: _344  and  _347
REMARK  140  A    between atoms: _347  and  _348
REMARK  141  A    between atoms: _351  and  _353
REMARK  142  A    between atoms: _353  and  _354
REMARK  143  A    between atoms: _353  and  _356
REMARK  144  A    between atoms: _356  and  _357
REMARK  145  A    between atoms: _360  and  _362
REMARK  146  A    between atoms: _362  and  _363
REMARK  147  A    between atoms: _362  and  _365
REMARK  148  A    between atoms: _365  and  _366
REMARK  149  A    between atoms: _369  and  _371
REMARK  150  A    between atoms: _371  and  _372
REMARK  151  A    between atoms: _371  and  _374
REMARK  152  A    between atoms: _377  and  _379
REMARK  153  A    between atoms: _379  and  _380
REMARK  154  A    between atoms: _379  and  _382
REMARK  155  A    between atoms: _382  and  _383
REMARK  156  A    between atoms: _383  and  _384
REMARK  157  A    between atoms: _384  and  _385
REMARK  158  A    between atoms: _385  and  _386
REMARK  159  A    between atoms: _390  and  _392
REMARK  160  A    between atoms: _392  and  _393
REMARK  161  A    between atoms: _392  and  _395
REMARK  162  A    between atoms: _395  and  _396
REMARK  163  A    between atoms: _396  and  _397
REMARK  164  A    between atoms: _399  and  _401
REMARK  165  A    between atoms: _401  and  _402
REMARK  166  A    between atoms: _401  and  _404
REMARK  167  A    between atoms: _404  and  _405
REMARK  168  A    between atoms: _408  and  _410
REMARK  169  A    between atoms: _410  and  _411
REMARK  170  A    between atoms: _413  and  _415
REMARK  171  A    between atoms: _415  and  _416
REMARK  172  A    between atoms: _418  and  _420
REMARK  173  A    between atoms: _420  and  _421
REMARK  174  A    between atoms: _420  and  _423
REMARK  175  A    between atoms: _423  and  _424
REMARK  176  A    between atoms: _427  and  _429
REMARK  177  A    between atoms: _429  and  _430
REMARK  178  A    between atoms: _432  and  _434
REMARK  179  A    between atoms: _434  and  _435
REMARK  180  A    between atoms: _437  and  _439
REMARK  181  A    between atoms: _439  and  _440
REMARK  182  A    between atoms: _439  and  _442
REMARK  183  A    between atoms: _442  and  _443
REMARK  184  A    between atoms: _449  and  _451
REMARK  185  A    between atoms: _451  and  _452
REMARK  186  A    between atoms: _451  and  _454
REMARK  187  A    between atoms: _454  and  _455
REMARK  188  A    between atoms: _458  and  _460
REMARK  189  A    between atoms: _460  and  _461
REMARK  190  A    between atoms: _460  and  _463
REMARK  191  A    between atoms: _466  and  _468
REMARK  192  A    between atoms: _468  and  _469
REMARK  193  A    between atoms: _468  and  _471
REMARK  194  A    between atoms: _471  and  _472
REMARK  195  A    between atoms: _476  and  _477
REMARK  196  A    between atoms: _482  and  _484
REMARK  197  A    between atoms: _484  and  _485
REMARK  198  A    between atoms: _484  and  _487
REMARK  199  A    between atoms: _487  and  _488
REMARK  200  A    between atoms: _492  and  _493
REMARK  201  A    between atoms: _498  and  _500
REMARK  202  A    between atoms: _500  and  _501
REMARK  203  A    between atoms: _500  and  _503
REMARK  204  A    between atoms: _506  and  _508
REMARK  205  A    between atoms: _508  and  _509
REMARK  206  A    between atoms: _508  and  _511
REMARK  207  A    between atoms: _511  and  _512
REMARK  208  A    between atoms: _517  and  _519
REMARK  209  A    between atoms: _519  and  _520
REMARK  210  A    between atoms: _519  and  _522
REMARK  211  A    between atoms: _522  and  _523
REMARK  212  A    between atoms: _526  and  _528
REMARK  213  A    between atoms: _528  and  _529
REMARK  214  A    between atoms: _528  and  _531
REMARK  215  A    between atoms: _531  and  _532
REMARK  216  A    between atoms: _535  and  _537
REMARK  217  A    between atoms: _537  and  _538
REMARK  218  A    between atoms: _540  and  _542
REMARK  219  A    between atoms: _542  and  _543
REMARK  220  A    between atoms: _542  and  _545
REMARK  221  A    between atoms: _545  and  _546
REMARK  222  A    between atoms: _546  and  _547
REMARK  223  A    between atoms: _547  and  _548
REMARK  224  A    between atoms: _557  and  _559
REMARK  225  A    between atoms: _559  and  _560
REMARK  226  A    between atoms: _559  and  _562
REMARK  227  A    between atoms: _562  and  _563
REMARK                            x       y       z     vdW  Elec       q    Type
REMARK                         _______ _______ _______ _____ _____    ______ ____
ROOT
ATOM      1  O   HOH     1      20.353  32.077  11.858  0.00  0.00    +0.000 OA
ENDROOT
TORSDOF 0
REMARK  Name = ../refined-set-2016/4djo/4djo_pocket.pdb
REMARK  227 active torsions:
REMARK  status: ('A' for Active; 'I' for Inactive)
REMARK    1  A    between atoms: _1  and  _3
REMARK    2  A    between atoms: _3  and  _4
REMARK    3  A    between atoms: _3  and  _6
REMARK    4  A    between atoms: _6  and  _7
REMARK    5  A    between atoms: _7  and  _8
REMARK    6  A    between atoms: _8  and  _9
REMARK    7  A    between atoms: _18  and  _20
REMARK    8  A    between atoms: _20  and  _21
REMARK    9  A    between atoms: _20  and  _23
REMARK   10  A    between atoms: _23  and  _24
REMARK   11  A    between atoms: _27  and  _29
REMARK   12  A    between atoms: _29  and  _30
REMARK   13  A    between atoms: _29  and  _32
REMARK   14  A    between atoms: _32  and  _33
REMARK   15  A    between atoms: _36  and  _38
REMARK   16  A    between atoms: _38  and  _39
REMARK   17  A    between atoms: _38  and  _41
REMARK   18  A    between atoms: _41  and  _42
REMARK   19  A    between atoms: _45  and  _47
REMARK   20  A    between atoms: _47  and  _48
REMARK   21  A    between atoms: _47  and  _50
REMARK   22  A    between atoms: _50  and  _51
REMARK   23  A    between atoms: _54  and  _56
REMARK   24  A    between atoms: _56  and  _57
REMARK   25  A    between atoms: _59  and  _61
REMARK   26  A    between atoms: _61  and  _62
REMARK   27  A    between atoms: _65  and  _67
REMARK   28  A    between atoms: _67  and  _68
REMARK   29  A    between atoms: _67  and  _70
REMARK   30  A    between atoms: _70  and  _71
REMARK   31  A    between atoms: _74  and  _76
REMARK   32  A    between atoms: _76  and  _77
REMARK   33  A    between atoms: _76  and  _79
REMARK   34  A    between atoms: _79  and  _80
REMARK   35  A    between atoms: _83  and  _85
REMARK   36  A    between atoms: _85  and  _86
REMARK   37  A    between atoms: _85  and  _88
REMARK   38  A    between atoms: _88  and  _89
REMARK   39  A    between atoms: _92  and  _94
REMARK   40  A    between atoms: _94  and  _95
REMARK   41  A    between atoms: _94  and  _97
REMARK   42  A    between atoms: _100  and  _102
REMARK   43  A    between atoms: _102  and  _103
REMARK   44  A    between atoms: _102  and  _105
REMARK   45  A    between atoms: _105  and  _106
REMARK   46  A    between atoms: _106  and  _107
REMARK   47  A    between atoms: _109  and  _111
REMARK   48  A    between atoms: _111  and  _112
REMARK   49  A    between atoms: _111  and  _114
REMARK   50  A    between atoms: _114  and  _115
REMARK   51  A    between atoms: _118  and  _120
REMARK   52  A    between atoms: _120  and  _121
REMARK   53  A    between atoms: _123  and  _125
REMARK   54  A    between atoms: _125  and  _126
REMARK   55  A    between atoms: _128  and  _130
REMARK   56  A    between atoms: _130  and  _131
REMARK   57  A    between atoms: _130  and  _133
REMARK   58  A    between atoms: _133  and  _134
REMARK   59  A    between atoms: _137  and  _139
REMARK   60  A    between atoms: _139  and  _140
REMARK   61  A    between atoms: _142  and  _144
REMARK   62  A    between atoms: _144  and  _145
REMARK   63  A    between atoms: _147  and  _149
REMARK   64  A    between atoms: _149  and  _150
REMARK   65  A    between atoms: _149  and  _152
REMARK   66  A    between atoms: _152  and  _153
REMARK   67  A    between atoms: _159  and  _161
REMARK   68  A    between atoms: _161  and  _162
REMARK   69  A    between atoms: _161  and  _164
REMARK   70  A    between atoms: _164  and  _165
REMARK   71  A    between atoms: _168  and  _170
REMARK   72  A    between atoms: _170  and  _171
REMARK   73  A    between atoms: _170  and  _173
REMARK   74  A    between atoms: _176  and  _178
REMARK   75  A    between atoms: _178  and  _179
REMARK   76  A    between atoms: _178  and  _181
REMARK   77  A    between atoms: _181  and  _182
REMARK   78  A    between atoms: _186  and  _187
REMARK   79  A    between atoms: _192  and  _194
REMARK   80  A    between atoms: _194  and  _195
REMARK   81  A    between atoms: _194  and  _197
REMARK   82  A    between atoms: _197  and  _198
REMARK   83  A    between atoms: _202  and  _203
REMARK   84  A    between atoms: _208  and  _210
REMARK   85  A    between atoms: _210  and  _211
REMARK   86  A    between atoms: _210  and  _213
REMARK   87  A    between atoms: _216  and  _218
REMARK   88  A    between atoms: _218  and  _219
REMARK   89  A    between atoms: _218  and  _221
REMARK   90  A    between atoms: _221  and  _222
REMARK   91  A    between atoms: _227  and  _229
REMARK   92  A    between atoms: _229  and  _230
REMARK   93  A    between atoms: _229  and  _232
REMARK   94  A    between atoms: _232  and  _233
REMARK   95  A    between atoms: _236  and  _238
REMARK   96  A    between atoms: _238  and  _239
REMARK   97  A    between atoms: _238  and  _241
REMARK   98  A    between atoms: _241  and  _242
REMARK   99  A    between atoms: _245  and  _247
REMARK  100  A    between atoms: _247  and  _248
REMARK  101  A    between atoms: _250  and  _252
REMARK  102  A    between atoms: _252  and  _253
REMARK  103  A    between atoms: _252  and  _255
REMARK  104  A    between atoms: _255  and  _256
REMARK  105  A    between atoms: _256  and  _257
REMARK  106  A    between atoms: _257  and  _258
REMARK  107  A    between atoms: _267  and  _269
REMARK  108  A    between atoms: _269  and  _270
REMARK  109  A    between atoms: _269  and  _272
REMARK  110  A    between atoms: _272  and  _273
REMARK  111  A    between atoms: _278  and  _280
REMARK  112  A    between atoms: _280  and  _281
REMARK  113  A    between atoms: _280  and  _283
REMARK  114  A    between atoms: _283  and  _284
REMARK  115  A    between atoms: _284  and  _285
REMARK  116  A    between atoms: _285  and  _286
REMARK  117  A    between atoms: _295  and  _297
REMARK  118  A    between atoms: _297  and  _298
REMARK  119  A    between atoms: _297  and  _300
REMARK  120  A    between atoms: _300  and  _301
REMARK  121  A    between atoms: _304  and  _306
REMARK  122  A    between atoms: _306  and  _307
REMARK  123  A    between atoms: _306  and  _309
REMARK  124  A    between atoms: _309  and  _310
REMARK  125  A    between atoms: _313  and  _315
REMARK  126  A    between atoms: _315  and  _316
REMARK  127  A    between atoms: _315  and  _318
REMARK  128  A    between atoms: _318  and  _319
REMARK  129  A    between atoms: _322  and  _324
REMARK  130  A    between atoms: _324  and  _325
REMARK  131  A    between atoms: _324  and  _327
REMARK  132  A    between atoms: _327  and  _328
REMARK  133  A    between atoms: _331  and  _333
REMARK  134  A    between atoms: _333  and  _334
REMARK  135  A    between atoms: _336  and  _338
REMARK  136  A    between atoms: _338  and  _339
REMARK  137  A    between atoms: _342  and  _344
REMARK  138  A    between atoms: _344  and  _345
REMARK  139  A    between atoms: _344  and  _347
REMARK  140  A    between atoms: _347  and  _348
REMARK  141  A    between atoms: _351  and  _353
REMARK  142  A    between atoms: _353  and  _354
REMARK  143  A    between atoms: _353  and  _356
REMARK  144  A    between atoms: _356  and  _357
REMARK  145  A    between atoms: _360  and  _362
REMARK  146  A    between atoms: _362  and  _363
REMARK  147  A    between atoms: _362  and  _365
REMARK  148  A    between atoms: _365  and  _366
REMARK  149  A    between atoms: _369  and  _371
REMARK  150  A    between atoms: _371  and  _372
REMARK  151  A    between atoms: _371  and  _374
REMARK  152  A    between atoms: _377  and  _379
REMARK  153  A    between atoms: _379  and  _380
REMARK  154  A    between atoms: _379  and  _382
REMARK  155  A    between atoms: _382  and  _383
REMARK  156  A    between atoms: _383  and  _384
REMARK  157  A    between atoms: _384  and  _385
REMARK  158  A    between atoms: _385  and  _386
REMARK  159  A    between atoms: _390  and  _392
REMARK  160  A    between atoms: _392  and  _393
REMARK  161  A    between atoms: _392  and  _395
REMARK  162  A    between atoms: _395  and  _396
REMARK  163  A    between atoms: _396  and  _397
REMARK  164  A    between atoms: _399  and  _401
REMARK  165  A    between atoms: _401  and  _402
REMARK  166  A    between atoms: _401  and  _404
REMARK  167  A    between atoms: _404  and  _405
REMARK  168  A    between atoms: _408  and  _410
REMARK  169  A    between atoms: _410  and  _411
REMARK  170  A    between atoms: _413  and  _415
REMARK  171  A    between atoms: _415  and  _416
REMARK  172  A    between atoms: _418  and  _420
REMARK  173  A    between atoms: _420  and  _421
REMARK  174  A    between atoms: _420  and  _423
REMARK  175  A    between atoms: _423  and  _424
REMARK  176  A    between atoms: _427  and  _429
REMARK  177  A    between atoms: _429  and  _430
REMARK  178  A    between atoms: _432  and  _434
REMARK  179  A    between atoms: _434  and  _435
REMARK  180  A    between atoms: _437  and  _439
REMARK  181  A    between atoms: _439  and  _440
REMARK  182  A    between atoms: _439  and  _442
REMARK  183  A    between atoms: _442  and  _443
REMARK  184  A    between atoms: _449  and  _451
REMARK  185  A    between atoms: _451  and  _452
REMARK  186  A    between atoms: _451  and  _454
REMARK  187  A    between atoms: _454  and  _455
REMARK  188  A    between atoms: _458  and  _460
REMARK  189  A    between atoms: _460  and  _461
REMARK  190  A    between atoms: _460  and  _463
REMARK  191  A    between atoms: _466  and  _468
REMARK  192  A    between atoms: _468  and  _469
REMARK  193  A    between atoms: _468  and  _471
REMARK  194  A    between atoms: _471  and  _472
REMARK  195  A    between atoms: _476  and  _477
REMARK  196  A    between atoms: _482  and  _484
REMARK  197  A    between atoms: _484  and  _485
REMARK  198  A    between atoms: _484  and  _487
REMARK  199  A    between atoms: _487  and  _488
REMARK  200  A    between atoms: _492  and  _493
REMARK  201  A    between atoms: _498  and  _500
REMARK  202  A    between atoms: _500  and  _501
REMARK  203  A    between atoms: _500  and  _503
REMARK  204  A    between atoms: _506  and  _508
REMARK  205  A    between atoms: _508  and  _509
REMARK  206  A    between atoms: _508  and  _511
REMARK  207  A    between atoms: _511  and  _512
REMARK  208  A    between atoms: _517  and  _519
REMARK  209  A    between atoms: _519  and  _520
REMARK  210  A    between atoms: _519  and  _522
REMARK  211  A    between atoms: _522  and  _523
REMARK  212  A    between atoms: _526  and  _528
REMARK  213  A    between atoms: _528  and  _529
REMARK  214  A    between atoms: _528  and  _531
REMARK  215  A    between atoms: _531  and  _532
REMARK  216  A    between atoms: _535  and  _537
REMARK  217  A    between atoms: _537  and  _538
REMARK  218  A    between atoms: _540  and  _542
REMARK  219  A    between atoms: _542  and  _543
REMARK  220  A    between atoms: _542  and  _545
REMARK  221  A    between atoms: _545  and  _546
REMARK  222  A    between atoms: _546  and  _547
REMARK  223  A    between atoms: _547  and  _548
REMARK  224  A    between atoms: _557  and  _559
REMARK  225  A    between atoms: _559  and  _560
REMARK  226  A    between atoms: _559  and  _562
REMARK  227  A    between atoms: _562  and  _563
REMARK                            x       y       z     vdW  Elec       q    Type
REMARK                         _______ _______ _______ _____ _____    ______ ____
ROOT
ATOM      1  O   HOH     1      31.139  23.404  12.127  0.00  0.00    +0.000 OA
ENDROOT
TORSDOF 0
REMARK  Name = ../refined-set-2016/4djo/4djo_pocket.pdb
REMARK  227 active torsions:
REMARK  status: ('A' for Active; 'I' for Inactive)
REMARK    1  A    between atoms: _1  and  _3
REMARK    2  A    between atoms: _3  and  _4
REMARK    3  A    between atoms: _3  and  _6
REMARK    4  A    between atoms: _6  and  _7
REMARK    5  A    between atoms: _7  and  _8
REMARK    6  A    between atoms: _8  and  _9
REMARK    7  A    between atoms: _18  and  _20
REMARK    8  A    between atoms: _20  and  _21
REMARK    9  A    between atoms: _20  and  _23
REMARK   10  A    between atoms: _23  and  _24
REMARK   11  A    between atoms: _27  and  _29
REMARK   12  A    between atoms: _29  and  _30
REMARK   13  A    between atoms: _29  and  _32
REMARK   14  A    between atoms: _32  and  _33
REMARK   15  A    between atoms: _36  and  _38
REMARK   16  A    between atoms: _38  and  _39
REMARK   17  A    between atoms: _38  and  _41
REMARK   18  A    between atoms: _41  and  _42
REMARK   19  A    between atoms: _45  and  _47
REMARK   20  A    between atoms: _47  and  _48
REMARK   21  A    between atoms: _47  and  _50
REMARK   22  A    between atoms: _50  and  _51
REMARK   23  A    between atoms: _54  and  _56
REMARK   24  A    between atoms: _56  and  _57
REMARK   25  A    between atoms: _59  and  _61
REMARK   26  A    between atoms: _61  and  _62
REMARK   27  A    between atoms: _65  and  _67
REMARK   28  A    between atoms: _67  and  _68
REMARK   29  A    between atoms: _67  and  _70
REMARK   30  A    between atoms: _70  and  _71
REMARK   31  A    between atoms: _74  and  _76
REMARK   32  A    between atoms: _76  and  _77
REMARK   33  A    between atoms: _76  and  _79
REMARK   34  A    between atoms: _79  and  _80
REMARK   35  A    between atoms: _83  and  _85
REMARK   36  A    between atoms: _85  and  _86
REMARK   37  A    between atoms: _85  and  _88
REMARK   38  A    between atoms: _88  and  _89
REMARK   39  A    between atoms: _92  and  _94
REMARK   40  A    between atoms: _94  and  _95
REMARK   41  A    between atoms: _94  and  _97
REMARK   42  A    between atoms: _100  and  _102
REMARK   43  A    between atoms: _102  and  _103
REMARK   44  A    between atoms: _102  and  _105
REMARK   45  A    between atoms: _105  and  _106
REMARK   46  A    between atoms: _106  and  _107
REMARK   47  A    between atoms: _109  and  _111
REMARK   48  A    between atoms: _111  and  _112
REMARK   49  A    between atoms: _111  and  _114
REMARK   50  A    between atoms: _114  and  _115
REMARK   51  A    between atoms: _118  and  _120
REMARK   52  A    between atoms: _120  and  _121
REMARK   53  A    between atoms: _123  and  _125
REMARK   54  A    between atoms: _125  and  _126
REMARK   55  A    between atoms: _128  and  _130
REMARK   56  A    between atoms: _130  and  _131
REMARK   57  A    between atoms: _130  and  _133
REMARK   58  A    between atoms: _133  and  _134
REMARK   59  A    between atoms: _137  and  _139
REMARK   60  A    between atoms: _139  and  _140
REMARK   61  A    between atoms: _142  and  _144
REMARK   62  A    between atoms: _144  and  _145
REMARK   63  A    between atoms: _147  and  _149
REMARK   64  A    between atoms: _149  and  _150
REMARK   65  A    between atoms: _149  and  _152
REMARK   66  A    between atoms: _152  and  _153
REMARK   67  A    between atoms: _159  and  _161
REMARK   68  A    between atoms: _161  and  _162
REMARK   69  A    between atoms: _161  and  _164
REMARK   70  A    between atoms: _164  and  _165
REMARK   71  A    between atoms: _168  and  _170
REMARK   72  A    between atoms: _170  and  _171
REMARK   73  A    between atoms: _170  and  _173
REMARK   74  A    between atoms: _176  and  _178
REMARK   75  A    between atoms: _178  and  _179
REMARK   76  A    between atoms: _178  and  _181
REMARK   77  A    between atoms: _181  and  _182
REMARK   78  A    between atoms: _186  and  _187
REMARK   79  A    between atoms: _192  and  _194
REMARK   80  A    between atoms: _194  and  _195
REMARK   81  A    between atoms: _194  and  _197
REMARK   82  A    between atoms: _197  and  _198
REMARK   83  A    between atoms: _202  and  _203
REMARK   84  A    between atoms: _208  and  _210
REMARK   85  A    between atoms: _210  and  _211
REMARK   86  A    between atoms: _210  and  _213
REMARK   87  A    between atoms: _216  and  _218
REMARK   88  A    between atoms: _218  and  _219
REMARK   89  A    between atoms: _218  and  _221
REMARK   90  A    between atoms: _221  and  _222
REMARK   91  A    between atoms: _227  and  _229
REMARK   92  A    between atoms: _229  and  _230
REMARK   93  A    between atoms: _229  and  _232
REMARK   94  A    between atoms: _232  and  _233
REMARK   95  A    between atoms: _236  and  _238
REMARK   96  A    between atoms: _238  and  _239
REMARK   97  A    between atoms: _238  and  _241
REMARK   98  A    between atoms: _241  and  _242
REMARK   99  A    between atoms: _245  and  _247
REMARK  100  A    between atoms: _247  and  _248
REMARK  101  A    between atoms: _250  and  _252
REMARK  102  A    between atoms: _252  and  _253
REMARK  103  A    between atoms: _252  and  _255
REMARK  104  A    between atoms: _255  and  _256
REMARK  105  A    between atoms: _256  and  _257
REMARK  106  A    between atoms: _257  and  _258
REMARK  107  A    between atoms: _267  and  _269
REMARK  108  A    between atoms: _269  and  _270
REMARK  109  A    between atoms: _269  and  _272
REMARK  110  A    between atoms: _272  and  _273
REMARK  111  A    between atoms: _278  and  _280
REMARK  112  A    between atoms: _280  and  _281
REMARK  113  A    between atoms: _280  and  _283
REMARK  114  A    between atoms: _283  and  _284
REMARK  115  A    between atoms: _284  and  _285
REMARK  116  A    between atoms: _285  and  _286
REMARK  117  A    between atoms: _295  and  _297
REMARK  118  A    between atoms: _297  and  _298
REMARK  119  A    between atoms: _297  and  _300
REMARK  120  A    between atoms: _300  and  _301
REMARK  121  A    between atoms: _304  and  _306
REMARK  122  A    between atoms: _306  and  _307
REMARK  123  A    between atoms: _306  and  _309
REMARK  124  A    between atoms: _309  and  _310
REMARK  125  A    between atoms: _313  and  _315
REMARK  126  A    between atoms: _315  and  _316
REMARK  127  A    between atoms: _315  and  _318
REMARK  128  A    between atoms: _318  and  _319
REMARK  129  A    between atoms: _322  and  _324
REMARK  130  A    between atoms: _324  and  _325
REMARK  131  A    between atoms: _324  and  _327
REMARK  132  A    between atoms: _327  and  _328
REMARK  133  A    between atoms: _331  and  _333
REMARK  134  A    between atoms: _333  and  _334
REMARK  135  A    between atoms: _336  and  _338
REMARK  136  A    between atoms: _338  and  _339
REMARK  137  A    between atoms: _342  and  _344
REMARK  138  A    between atoms: _344  and  _345
REMARK  139  A    between atoms: _344  and  _347
REMARK  140  A    between atoms: _347  and  _348
REMARK  141  A    between atoms: _351  and  _353
REMARK  142  A    between atoms: _353  and  _354
REMARK  143  A    between atoms: _353  and  _356
REMARK  144  A    between atoms: _356  and  _357
REMARK  145  A    between atoms: _360  and  _362
REMARK  146  A    between atoms: _362  and  _363
REMARK  147  A    between atoms: _362  and  _365
REMARK  148  A    between atoms: _365  and  _366
REMARK  149  A    between atoms: _369  and  _371
REMARK  150  A    between atoms: _371  and  _372
REMARK  151  A    between atoms: _371  and  _374
REMARK  152  A    between atoms: _377  and  _379
REMARK  153  A    between atoms: _379  and  _380
REMARK  154  A    between atoms: _379  and  _382
REMARK  155  A    between atoms: _382  and  _383
REMARK  156  A    between atoms: _383  and  _384
REMARK  157  A    between atoms: _384  and  _385
REMARK  158  A    between atoms: _385  and  _386
REMARK  159  A    between atoms: _390  and  _392
REMARK  160  A    between atoms: _392  and  _393
REMARK  161  A    between atoms: _392  and  _395
REMARK  162  A    between atoms: _395  and  _396
REMARK  163  A    between atoms: _396  and  _397
REMARK  164  A    between atoms: _399  and  _401
REMARK  165  A    between atoms: _401  and  _402
REMARK  166  A    between atoms: _401  and  _404
REMARK  167  A    between atoms: _404  and  _405
REMARK  168  A    between atoms: _408  and  _410
REMARK  169  A    between atoms: _410  and  _411
REMARK  170  A    between atoms: _413  and  _415
REMARK  171  A    between atoms: _415  and  _416
REMARK  172  A    between atoms: _418  and  _420
REMARK  173  A    between atoms: _420  and  _421
REMARK  174  A    between atoms: _420  and  _423
REMARK  175  A    between atoms: _423  and  _424
REMARK  176  A    between atoms: _427  and  _429
REMARK  177  A    between atoms: _429  and  _430
REMARK  178  A    between atoms: _432  and  _434
REMARK  179  A    between atoms: _434  and  _435
REMARK  180  A    between atoms: _437  and  _439
REMARK  181  A    between atoms: _439  and  _440
REMARK  182  A    between atoms: _439  and  _442
REMARK  183  A    between atoms: _442  and  _443
REMARK  184  A    between atoms: _449  and  _451
REMARK  185  A    between atoms: _451  and  _452
REMARK  186  A    between atoms: _451  and  _454
REMARK  187  A    between atoms: _454  and  _455
REMARK  188  A    between atoms: _458  and  _460
REMARK  189  A    between atoms: _460  and  _461
REMARK  190  A    between atoms: _460  and  _463
REMARK  191  A    between atoms: _466  and  _468
REMARK  192  A    between atoms: _468  and  _469
REMARK  193  A    between atoms: _468  and  _471
REMARK  194  A    between atoms: _471  and  _472
REMARK  195  A    between atoms: _476  and  _477
REMARK  196  A    between atoms: _482  and  _484
REMARK  197  A    between atoms: _484  and  _485
REMARK  198  A    between atoms: _484  and  _487
REMARK  199  A    between atoms: _487  and  _488
REMARK  200  A    between atoms: _492  and  _493
REMARK  201  A    between atoms: _498  and  _500
REMARK  202  A    between atoms: _500  and  _501
REMARK  203  A    between atoms: _500  and  _503
REMARK  204  A    between atoms: _506  and  _508
REMARK  205  A    between atoms: _508  and  _509
REMARK  206  A    between atoms: _508  and  _511
REMARK  207  A    between atoms: _511  and  _512
REMARK  208  A    between atoms: _517  and  _519
REMARK  209  A    between atoms: _519  and  _520
REMARK  210  A    between atoms: _519  and  _522
REMARK  211  A    between atoms: _522  and  _523
REMARK  212  A    between atoms: _526  and  _528
REMARK  213  A    between atoms: _528  and  _529
REMARK  214  A    between atoms: _528  and  _531
REMARK  215  A    between atoms: _531  and  _532
REMARK  216  A    between atoms: _535  and  _537
REMARK  217  A    between atoms: _537  and  _538
REMARK  218  A    between atoms: _540  and  _542
REMARK  219  A    between atoms: _542  and  _543
REMARK  220  A    between atoms: _542  and  _545
REMARK  221  A    between atoms: _545  and  _546
REMARK  222  A    between atoms: _546  and  _547
REMARK  223  A    between atoms: _547  and  _548
REMARK  224  A    between atoms: _557  and  _559
REMARK  225  A    between atoms: _559  and  _560
REMARK  226  A    between atoms: _559  and  _562
REMARK  227  A    between atoms: _562  and  _563
REMARK                            x       y       z     vdW  Elec       q    Type
REMARK                         _______ _______ _______ _____ _____    ______ ____
ROOT
ATOM      1  O   HOH     1      15.080  33.158   5.383  0.00  0.00    +0.000 OA
ENDROOT
TORSDOF 0
REMARK  Name = ../refined-set-2016/4djo/4djo_pocket.pdb
REMARK  227 active torsions:
REMARK  status: ('A' for Active; 'I' for Inactive)
REMARK    1  A    between atoms: _1  and  _3
REMARK    2  A    between atoms: _3  and  _4
REMARK    3  A    between atoms: _3  and  _6
REMARK    4  A    between atoms: _6  and  _7
REMARK    5  A    between atoms: _7  and  _8
REMARK    6  A    between atoms: _8  and  _9
REMARK    7  A    between atoms: _18  and  _20
REMARK    8  A    between atoms: _20  and  _21
REMARK    9  A    between atoms: _20  and  _23
REMARK   10  A    between atoms: _23  and  _24
REMARK   11  A    between atoms: _27  and  _29
REMARK   12  A    between atoms: _29  and  _30
REMARK   13  A    between atoms: _29  and  _32
REMARK   14  A    between atoms: _32  and  _33
REMARK   15  A    between atoms: _36  and  _38
REMARK   16  A    between atoms: _38  and  _39
REMARK   17  A    between atoms: _38  and  _41
REMARK   18  A    between atoms: _41  and  _42
REMARK   19  A    between atoms: _45  and  _47
REMARK   20  A    between atoms: _47  and  _48
REMARK   21  A    between atoms: _47  and  _50
REMARK   22  A    between atoms: _50  and  _51
REMARK   23  A    between atoms: _54  and  _56
REMARK   24  A    between atoms: _56  and  _57
REMARK   25  A    between atoms: _59  and  _61
REMARK   26  A    between atoms: _61  and  _62
REMARK   27  A    between atoms: _65  and  _67
REMARK   28  A    between atoms: _67  and  _68
REMARK   29  A    between atoms: _67  and  _70
REMARK   30  A    between atoms: _70  and  _71
REMARK   31  A    between atoms: _74  and  _76
REMARK   32  A    between atoms: _76  and  _77
REMARK   33  A    between atoms: _76  and  _79
REMARK   34  A    between atoms: _79  and  _80
REMARK   35  A    between atoms: _83  and  _85
REMARK   36  A    between atoms: _85  and  _86
REMARK   37  A    between atoms: _85  and  _88
REMARK   38  A    between atoms: _88  and  _89
REMARK   39  A    between atoms: _92  and  _94
REMARK   40  A    between atoms: _94  and  _95
REMARK   41  A    between atoms: _94  and  _97
REMARK   42  A    between atoms: _100  and  _102
REMARK   43  A    between atoms: _102  and  _103
REMARK   44  A    between atoms: _102  and  _105
REMARK   45  A    between atoms: _105  and  _106
REMARK   46  A    between atoms: _106  and  _107
REMARK   47  A    between atoms: _109  and  _111
REMARK   48  A    between atoms: _111  and  _112
REMARK   49  A    between atoms: _111  and  _114
REMARK   50  A    between atoms: _114  and  _115
REMARK   51  A    between atoms: _118  and  _120
REMARK   52  A    between atoms: _120  and  _121
REMARK   53  A    between atoms: _123  and  _125
REMARK   54  A    between atoms: _125  and  _126
REMARK   55  A    between atoms: _128  and  _130
REMARK   56  A    between atoms: _130  and  _131
REMARK   57  A    between atoms: _130  and  _133
REMARK   58  A    between atoms: _133  and  _134
REMARK   59  A    between atoms: _137  and  _139
REMARK   60  A    between atoms: _139  and  _140
REMARK   61  A    between atoms: _142  and  _144
REMARK   62  A    between atoms: _144  and  _145
REMARK   63  A    between atoms: _147  and  _149
REMARK   64  A    between atoms: _149  and  _150
REMARK   65  A    between atoms: _149  and  _152
REMARK   66  A    between atoms: _152  and  _153
REMARK   67  A    between atoms: _159  and  _161
REMARK   68  A    between atoms: _161  and  _162
REMARK   69  A    between atoms: _161  and  _164
REMARK   70  A    between atoms: _164  and  _165
REMARK   71  A    between atoms: _168  and  _170
REMARK   72  A    between atoms: _170  and  _171
REMARK   73  A    between atoms: _170  and  _173
REMARK   74  A    between atoms: _176  and  _178
REMARK   75  A    between atoms: _178  and  _179
REMARK   76  A    between atoms: _178  and  _181
REMARK   77  A    between atoms: _181  and  _182
REMARK   78  A    between atoms: _186  and  _187
REMARK   79  A    between atoms: _192  and  _194
REMARK   80  A    between atoms: _194  and  _195
REMARK   81  A    between atoms: _194  and  _197
REMARK   82  A    between atoms: _197  and  _198
REMARK   83  A    between atoms: _202  and  _203
REMARK   84  A    between atoms: _208  and  _210
REMARK   85  A    between atoms: _210  and  _211
REMARK   86  A    between atoms: _210  and  _213
REMARK   87  A    between atoms: _216  and  _218
REMARK   88  A    between atoms: _218  and  _219
REMARK   89  A    between atoms: _218  and  _221
REMARK   90  A    between atoms: _221  and  _222
REMARK   91  A    between atoms: _227  and  _229
REMARK   92  A    between atoms: _229  and  _230
REMARK   93  A    between atoms: _229  and  _232
REMARK   94  A    between atoms: _232  and  _233
REMARK   95  A    between atoms: _236  and  _238
REMARK   96  A    between atoms: _238  and  _239
REMARK   97  A    between atoms: _238  and  _241
REMARK   98  A    between atoms: _241  and  _242
REMARK   99  A    between atoms: _245  and  _247
REMARK  100  A    between atoms: _247  and  _248
REMARK  101  A    between atoms: _250  and  _252
REMARK  102  A    between atoms: _252  and  _253
REMARK  103  A    between atoms: _252  and  _255
REMARK  104  A    between atoms: _255  and  _256
REMARK  105  A    between atoms: _256  and  _257
REMARK  106  A    between atoms: _257  and  _258
REMARK  107  A    between atoms: _267  and  _269
REMARK  108  A    between atoms: _269  and  _270
REMARK  109  A    between atoms: _269  and  _272
REMARK  110  A    between atoms: _272  and  _273
REMARK  111  A    between atoms: _278  and  _280
REMARK  112  A    between atoms: _280  and  _281
REMARK  113  A    between atoms: _280  and  _283
REMARK  114  A    between atoms: _283  and  _284
REMARK  115  A    between atoms: _284  and  _285
REMARK  116  A    between atoms: _285  and  _286
REMARK  117  A    between atoms: _295  and  _297
REMARK  118  A    between atoms: _297  and  _298
REMARK  119  A    between atoms: _297  and  _300
REMARK  120  A    between atoms: _300  and  _301
REMARK  121  A    between atoms: _304  and  _306
REMARK  122  A    between atoms: _306  and  _307
REMARK  123  A    between atoms: _306  and  _309
REMARK  124  A    between atoms: _309  and  _310
REMARK  125  A    between atoms: _313  and  _315
REMARK  126  A    between atoms: _315  and  _316
REMARK  127  A    between atoms: _315  and  _318
REMARK  128  A    between atoms: _318  and  _319
REMARK  129  A    between atoms: _322  and  _324
REMARK  130  A    between atoms: _324  and  _325
REMARK  131  A    between atoms: _324  and  _327
REMARK  132  A    between atoms: _327  and  _328
REMARK  133  A    between atoms: _331  and  _333
REMARK  134  A    between atoms: _333  and  _334
REMARK  135  A    between atoms: _336  and  _338
REMARK  136  A    between atoms: _338  and  _339
REMARK  137  A    between atoms: _342  and  _344
REMARK  138  A    between atoms: _344  and  _345
REMARK  139  A    between atoms: _344  and  _347
REMARK  140  A    between atoms: _347  and  _348
REMARK  141  A    between atoms: _351  and  _353
REMARK  142  A    between atoms: _353  and  _354
REMARK  143  A    between atoms: _353  and  _356
REMARK  144  A    between atoms: _356  and  _357
REMARK  145  A    between atoms: _360  and  _362
REMARK  146  A    between atoms: _362  and  _363
REMARK  147  A    between atoms: _362  and  _365
REMARK  148  A    between atoms: _365  and  _366
REMARK  149  A    between atoms: _369  and  _371
REMARK  150  A    between atoms: _371  and  _372
REMARK  151  A    between atoms: _371  and  _374
REMARK  152  A    between atoms: _377  and  _379
REMARK  153  A    between atoms: _379  and  _380
REMARK  154  A    between atoms: _379  and  _382
REMARK  155  A    between atoms: _382  and  _383
REMARK  156  A    between atoms: _383  and  _384
REMARK  157  A    between atoms: _384  and  _385
REMARK  158  A    between atoms: _385  and  _386
REMARK  159  A    between atoms: _390  and  _392
REMARK  160  A    between atoms: _392  and  _393
REMARK  161  A    between atoms: _392  and  _395
REMARK  162  A    between atoms: _395  and  _396
REMARK  163  A    between atoms: _396  and  _397
REMARK  164  A    between atoms: _399  and  _401
REMARK  165  A    between atoms: _401  and  _402
REMARK  166  A    between atoms: _401  and  _404
REMARK  167  A    between atoms: _404  and  _405
REMARK  168  A    between atoms: _408  and  _410
REMARK  169  A    between atoms: _410  and  _411
REMARK  170  A    between atoms: _413  and  _415
REMARK  171  A    between atoms: _415  and  _416
REMARK  172  A    between atoms: _418  and  _420
REMARK  173  A    between atoms: _420  and  _421
REMARK  174  A    between atoms: _420  and  _423
REMARK  175  A    between atoms: _423  and  _424
REMARK  176  A    between atoms: _427  and  _429
REMARK  177  A    between atoms: _429  and  _430
REMARK  178  A    between atoms: _432  and  _434
REMARK  179  A    between atoms: _434  and  _435
REMARK  180  A    between atoms: _437  and  _439
REMARK  181  A    between atoms: _439  and  _440
REMARK  182  A    between atoms: _439  and  _442
REMARK  183  A    between atoms: _442  and  _443
REMARK  184  A    between atoms: _449  and  _451
REMARK  185  A    between atoms: _451  and  _452
REMARK  186  A    between atoms: _451  and  _454
REMARK  187  A    between atoms: _454  and  _455
REMARK  188  A    between atoms: _458  and  _460
REMARK  189  A    between atoms: _460  and  _461
REMARK  190  A    between atoms: _460  and  _463
REMARK  191  A    between atoms: _466  and  _468
REMARK  192  A    between atoms: _468  and  _469
REMARK  193  A    between atoms: _468  and  _471
REMARK  194  A    between atoms: _471  and  _472
REMARK  195  A    between atoms: _476  and  _477
REMARK  196  A    between atoms: _482  and  _484
REMARK  197  A    between atoms: _484  and  _485
REMARK  198  A    between atoms: _484  and  _487
REMARK  199  A    between atoms: _487  and  _488
REMARK  200  A    between atoms: _492  and  _493
REMARK  201  A    between atoms: _498  and  _500
REMARK  202  A    between atoms: _500  and  _501
REMARK  203  A    between atoms: _500  and  _503
REMARK  204  A    between atoms: _506  and  _508
REMARK  205  A    between atoms: _508  and  _509
REMARK  206  A    between atoms: _508  and  _511
REMARK  207  A    between atoms: _511  and  _512
REMARK  208  A    between atoms: _517  and  _519
REMARK  209  A    between atoms: _519  and  _520
REMARK  210  A    between atoms: _519  and  _522
REMARK  211  A    between atoms: _522  and  _523
REMARK  212  A    between atoms: _526  and  _528
REMARK  213  A    between atoms: _528  and  _529
REMARK  214  A    between atoms: _528  and  _531
REMARK  215  A    between atoms: _531  and  _532
REMARK  216  A    between atoms: _535  and  _537
REMARK  217  A    between atoms: _537  and  _538
REMARK  218  A    between atoms: _540  and  _542
REMARK  219  A    between atoms: _542  and  _543
REMARK  220  A    between atoms: _542  and  _545
REMARK  221  A    between atoms: _545  and  _546
REMARK  222  A    between atoms: _546  and  _547
REMARK  223  A    between atoms: _547  and  _548
REMARK  224  A    between atoms: _557  and  _559
REMARK  225  A    between atoms: _559  and  _560
REMARK  226  A    between atoms: _559  and  _562
REMARK  227  A    between atoms: _562  and  _563
REMARK                            x       y       z     vdW  Elec       q    Type
REMARK                         _______ _______ _______ _____ _____    ______ ____
ROOT
ATOM      1  O   HOH     1      23.251  25.111   5.463  0.00  0.00    +0.000 OA
ENDROOT
TORSDOF 0
REMARK  Name = ../refined-set-2016/4djo/4djo_pocket.pdb
REMARK  227 active torsions:
REMARK  status: ('A' for Active; 'I' for Inactive)
REMARK    1  A    between atoms: _1  and  _3
REMARK    2  A    between atoms: _3  and  _4
REMARK    3  A    between atoms: _3  and  _6
REMARK    4  A    between atoms: _6  and  _7
REMARK    5  A    between atoms: _7  and  _8
REMARK    6  A    between atoms: _8  and  _9
REMARK    7  A    between atoms: _18  and  _20
REMARK    8  A    between atoms: _20  and  _21
REMARK    9  A    between atoms: _20  and  _23
REMARK   10  A    between atoms: _23  and  _24
REMARK   11  A    between atoms: _27  and  _29
REMARK   12  A    between atoms: _29  and  _30
REMARK   13  A    between atoms: _29  and  _32
REMARK   14  A    between atoms: _32  and  _33
REMARK   15  A    between atoms: _36  and  _38
REMARK   16  A    between atoms: _38  and  _39
REMARK   17  A    between atoms: _38  and  _41
REMARK   18  A    between atoms: _41  and  _42
REMARK   19  A    between atoms: _45  and  _47
REMARK   20  A    between atoms: _47  and  _48
REMARK   21  A    between atoms: _47  and  _50
REMARK   22  A    between atoms: _50  and  _51
REMARK   23  A    between atoms: _54  and  _56
REMARK   24  A    between atoms: _56  and  _57
REMARK   25  A    between atoms: _59  and  _61
REMARK   26  A    between atoms: _61  and  _62
REMARK   27  A    between atoms: _65  and  _67
REMARK   28  A    between atoms: _67  and  _68
REMARK   29  A    between atoms: _67  and  _70
REMARK   30  A    between atoms: _70  and  _71
REMARK   31  A    between atoms: _74  and  _76
REMARK   32  A    between atoms: _76  and  _77
REMARK   33  A    between atoms: _76  and  _79
REMARK   34  A    between atoms: _79  and  _80
REMARK   35  A    between atoms: _83  and  _85
REMARK   36  A    between atoms: _85  and  _86
REMARK   37  A    between atoms: _85  and  _88
REMARK   38  A    between atoms: _88  and  _89
REMARK   39  A    between atoms: _92  and  _94
REMARK   40  A    between atoms: _94  and  _95
REMARK   41  A    between atoms: _94  and  _97
REMARK   42  A    between atoms: _100  and  _102
REMARK   43  A    between atoms: _102  and  _103
REMARK   44  A    between atoms: _102  and  _105
REMARK   45  A    between atoms: _105  and  _106
REMARK   46  A    between atoms: _106  and  _107
REMARK   47  A    between atoms: _109  and  _111
REMARK   48  A    between atoms: _111  and  _112
REMARK   49  A    between atoms: _111  and  _114
REMARK   50  A    between atoms: _114  and  _115
REMARK   51  A    between atoms: _118  and  _120
REMARK   52  A    between atoms: _120  and  _121
REMARK   53  A    between atoms: _123  and  _125
REMARK   54  A    between atoms: _125  and  _126
REMARK   55  A    between atoms: _128  and  _130
REMARK   56  A    between atoms: _130  and  _131
REMARK   57  A    between atoms: _130  and  _133
REMARK   58  A    between atoms: _133  and  _134
REMARK   59  A    between atoms: _137  and  _139
REMARK   60  A    between atoms: _139  and  _140
REMARK   61  A    between atoms: _142  and  _144
REMARK   62  A    between atoms: _144  and  _145
REMARK   63  A    between atoms: _147  and  _149
REMARK   64  A    between atoms: _149  and  _150
REMARK   65  A    between atoms: _149  and  _152
REMARK   66  A    between atoms: _152  and  _153
REMARK   67  A    between atoms: _159  and  _161
REMARK   68  A    between atoms: _161  and  _162
REMARK   69  A    between atoms: _161  and  _164
REMARK   70  A    between atoms: _164  and  _165
REMARK   71  A    between atoms: _168  and  _170
REMARK   72  A    between atoms: _170  and  _171
REMARK   73  A    between atoms: _170  and  _173
REMARK   74  A    between atoms: _176  and  _178
REMARK   75  A    between atoms: _178  and  _179
REMARK   76  A    between atoms: _178  and  _181
REMARK   77  A    between atoms: _181  and  _182
REMARK   78  A    between atoms: _186  and  _187
REMARK   79  A    between atoms: _192  and  _194
REMARK   80  A    between atoms: _194  and  _195
REMARK   81  A    between atoms: _194  and  _197
REMARK   82  A    between atoms: _197  and  _198
REMARK   83  A    between atoms: _202  and  _203
REMARK   84  A    between atoms: _208  and  _210
REMARK   85  A    between atoms: _210  and  _211
REMARK   86  A    between atoms: _210  and  _213
REMARK   87  A    between atoms: _216  and  _218
REMARK   88  A    between atoms: _218  and  _219
REMARK   89  A    between atoms: _218  and  _221
REMARK   90  A    between atoms: _221  and  _222
REMARK   91  A    between atoms: _227  and  _229
REMARK   92  A    between atoms: _229  and  _230
REMARK   93  A    between atoms: _229  and  _232
REMARK   94  A    between atoms: _232  and  _233
REMARK   95  A    between atoms: _236  and  _238
REMARK   96  A    between atoms: _238  and  _239
REMARK   97  A    between atoms: _238  and  _241
REMARK   98  A    between atoms: _241  and  _242
REMARK   99  A    between atoms: _245  and  _247
REMARK  100  A    between atoms: _247  and  _248
REMARK  101  A    between atoms: _250  and  _252
REMARK  102  A    between atoms: _252  and  _253
REMARK  103  A    between atoms: _252  and  _255
REMARK  104  A    between atoms: _255  and  _256
REMARK  105  A    between atoms: _256  and  _257
REMARK  106  A    between atoms: _257  and  _258
REMARK  107  A    between atoms: _267  and  _269
REMARK  108  A    between atoms: _269  and  _270
REMARK  109  A    between atoms: _269  and  _272
REMARK  110  A    between atoms: _272  and  _273
REMARK  111  A    between atoms: _278  and  _280
REMARK  112  A    between atoms: _280  and  _281
REMARK  113  A    between atoms: _280  and  _283
REMARK  114  A    between atoms: _283  and  _284
REMARK  115  A    between atoms: _284  and  _285
REMARK  116  A    between atoms: _285  and  _286
REMARK  117  A    between atoms: _295  and  _297
REMARK  118  A    between atoms: _297  and  _298
REMARK  119  A    between atoms: _297  and  _300
REMARK  120  A    between atoms: _300  and  _301
REMARK  121  A    between atoms: _304  and  _306
REMARK  122  A    between atoms: _306  and  _307
REMARK  123  A    between atoms: _306  and  _309
REMARK  124  A    between atoms: _309  and  _310
REMARK  125  A    between atoms: _313  and  _315
REMARK  126  A    between atoms: _315  and  _316
REMARK  127  A    between atoms: _315  and  _318
REMARK  128  A    between atoms: _318  and  _319
REMARK  129  A    between atoms: _322  and  _324
REMARK  130  A    between atoms: _324  and  _325
REMARK  131  A    between atoms: _324  and  _327
REMARK  132  A    between atoms: _327  and  _328
REMARK  133  A    between atoms: _331  and  _333
REMARK  134  A    between atoms: _333  and  _334
REMARK  135  A    between atoms: _336  and  _338
REMARK  136  A    between atoms: _338  and  _339
REMARK  137  A    between atoms: _342  and  _344
REMARK  138  A    between atoms: _344  and  _345
REMARK  139  A    between atoms: _344  and  _347
REMARK  140  A    between atoms: _347  and  _348
REMARK  141  A    between atoms: _351  and  _353
REMARK  142  A    between atoms: _353  and  _354
REMARK  143  A    between atoms: _353  and  _356
REMARK  144  A    between atoms: _356  and  _357
REMARK  145  A    between atoms: _360  and  _362
REMARK  146  A    between atoms: _362  and  _363
REMARK  147  A    between atoms: _362  and  _365
REMARK  148  A    between atoms: _365  and  _366
REMARK  149  A    between atoms: _369  and  _371
REMARK  150  A    between atoms: _371  and  _372
REMARK  151  A    between atoms: _371  and  _374
REMARK  152  A    between atoms: _377  and  _379
REMARK  153  A    between atoms: _379  and  _380
REMARK  154  A    between atoms: _379  and  _382
REMARK  155  A    between atoms: _382  and  _383
REMARK  156  A    between atoms: _383  and  _384
REMARK  157  A    between atoms: _384  and  _385
REMARK  158  A    between atoms: _385  and  _386
REMARK  159  A    between atoms: _390  and  _392
REMARK  160  A    between atoms: _392  and  _393
REMARK  161  A    between atoms: _392  and  _395
REMARK  162  A    between atoms: _395  and  _396
REMARK  163  A    between atoms: _396  and  _397
REMARK  164  A    between atoms: _399  and  _401
REMARK  165  A    between atoms: _401  and  _402
REMARK  166  A    between atoms: _401  and  _404
REMARK  167  A    between atoms: _404  and  _405
REMARK  168  A    between atoms: _408  and  _410
REMARK  169  A    between atoms: _410  and  _411
REMARK  170  A    between atoms: _413  and  _415
REMARK  171  A    between atoms: _415  and  _416
REMARK  172  A    between atoms: _418  and  _420
REMARK  173  A    between atoms: _420  and  _421
REMARK  174  A    between atoms: _420  and  _423
REMARK  175  A    between atoms: _423  and  _424
REMARK  176  A    between atoms: _427  and  _429
REMARK  177  A    between atoms: _429  and  _430
REMARK  178  A    between atoms: _432  and  _434
REMARK  179  A    between atoms: _434  and  _435
REMARK  180  A    between atoms: _437  and  _439
REMARK  181  A    between atoms: _439  and  _440
REMARK  182  A    between atoms: _439  and  _442
REMARK  183  A    between atoms: _442  and  _443
REMARK  184  A    between atoms: _449  and  _451
REMARK  185  A    between atoms: _451  and  _452
REMARK  186  A    between atoms: _451  and  _454
REMARK  187  A    between atoms: _454  and  _455
REMARK  188  A    between atoms: _458  and  _460
REMARK  189  A    between atoms: _460  and  _461
REMARK  190  A    between atoms: _460  and  _463
REMARK  191  A    between atoms: _466  and  _468
REMARK  192  A    between atoms: _468  and  _469
REMARK  193  A    between atoms: _468  and  _471
REMARK  194  A    between atoms: _471  and  _472
REMARK  195  A    between atoms: _476  and  _477
REMARK  196  A    between atoms: _482  and  _484
REMARK  197  A    between atoms: _484  and  _485
REMARK  198  A    between atoms: _484  and  _487
REMARK  199  A    between atoms: _487  and  _488
REMARK  200  A    between atoms: _492  and  _493
REMARK  201  A    between atoms: _498  and  _500
REMARK  202  A    between atoms: _500  and  _501
REMARK  203  A    between atoms: _500  and  _503
REMARK  204  A    between atoms: _506  and  _508
REMARK  205  A    between atoms: _508  and  _509
REMARK  206  A    between atoms: _508  and  _511
REMARK  207  A    between atoms: _511  and  _512
REMARK  208  A    between atoms: _517  and  _519
REMARK  209  A    between atoms: _519  and  _520
REMARK  210  A    between atoms: _519  and  _522
REMARK  211  A    between atoms: _522  and  _523
REMARK  212  A    between atoms: _526  and  _528
REMARK  213  A    between atoms: _528  and  _529
REMARK  214  A    between atoms: _528  and  _531
REMARK  215  A    between atoms: _531  and  _532
REMARK  216  A    between atoms: _535  and  _537
REMARK  217  A    between atoms: _537  and  _538
REMARK  218  A    between atoms: _540  and  _542
REMARK  219  A    between atoms: _542  and  _543
REMARK  220  A    between atoms: _542  and  _545
REMARK  221  A    between atoms: _545  and  _546
REMARK  222  A    between atoms: _546  and  _547
REMARK  223  A    between atoms: _547  and  _548
REMARK  224  A    between atoms: _557  and  _559
REMARK  225  A    between atoms: _559  and  _560
REMARK  226  A    between atoms: _559  and  _562
REMARK  227  A    between atoms: _562  and  _563
REMARK                            x       y       z     vdW  Elec       q    Type
REMARK                         _______ _______ _______ _____ _____    ______ ____
ROOT
ATOM      1  O   HOH     1      20.428  24.737   5.133  0.00  0.00    +0.000 OA
ENDROOT
TORSDOF 0
REMARK  Name = ../refined-set-2016/4djo/4djo_pocket.pdb
REMARK  227 active torsions:
REMARK  status: ('A' for Active; 'I' for Inactive)
REMARK    1  A    between atoms: _1  and  _3
REMARK    2  A    between atoms: _3  and  _4
REMARK    3  A    between atoms: _3  and  _6
REMARK    4  A    between atoms: _6  and  _7
REMARK    5  A    between atoms: _7  and  _8
REMARK    6  A    between atoms: _8  and  _9
REMARK    7  A    between atoms: _18  and  _20
REMARK    8  A    between atoms: _20  and  _21
REMARK    9  A    between atoms: _20  and  _23
REMARK   10  A    between atoms: _23  and  _24
REMARK   11  A    between atoms: _27  and  _29
REMARK   12  A    between atoms: _29  and  _30
REMARK   13  A    between atoms: _29  and  _32
REMARK   14  A    between atoms: _32  and  _33
REMARK   15  A    between atoms: _36  and  _38
REMARK   16  A    between atoms: _38  and  _39
REMARK   17  A    between atoms: _38  and  _41
REMARK   18  A    between atoms: _41  and  _42
REMARK   19  A    between atoms: _45  and  _47
REMARK   20  A    between atoms: _47  and  _48
REMARK   21  A    between atoms: _47  and  _50
REMARK   22  A    between atoms: _50  and  _51
REMARK   23  A    between atoms: _54  and  _56
REMARK   24  A    between atoms: _56  and  _57
REMARK   25  A    between atoms: _59  and  _61
REMARK   26  A    between atoms: _61  and  _62
REMARK   27  A    between atoms: _65  and  _67
REMARK   28  A    between atoms: _67  and  _68
REMARK   29  A    between atoms: _67  and  _70
REMARK   30  A    between atoms: _70  and  _71
REMARK   31  A    between atoms: _74  and  _76
REMARK   32  A    between atoms: _76  and  _77
REMARK   33  A    between atoms: _76  and  _79
REMARK   34  A    between atoms: _79  and  _80
REMARK   35  A    between atoms: _83  and  _85
REMARK   36  A    between atoms: _85  and  _86
REMARK   37  A    between atoms: _85  and  _88
REMARK   38  A    between atoms: _88  and  _89
REMARK   39  A    between atoms: _92  and  _94
REMARK   40  A    between atoms: _94  and  _95
REMARK   41  A    between atoms: _94  and  _97
REMARK   42  A    between atoms: _100  and  _102
REMARK   43  A    between atoms: _102  and  _103
REMARK   44  A    between atoms: _102  and  _105
REMARK   45  A    between atoms: _105  and  _106
REMARK   46  A    between atoms: _106  and  _107
REMARK   47  A    between atoms: _109  and  _111
REMARK   48  A    between atoms: _111  and  _112
REMARK   49  A    between atoms: _111  and  _114
REMARK   50  A    between atoms: _114  and  _115
REMARK   51  A    between atoms: _118  and  _120
REMARK   52  A    between atoms: _120  and  _121
REMARK   53  A    between atoms: _123  and  _125
REMARK   54  A    between atoms: _125  and  _126
REMARK   55  A    between atoms: _128  and  _130
REMARK   56  A    between atoms: _130  and  _131
REMARK   57  A    between atoms: _130  and  _133
REMARK   58  A    between atoms: _133  and  _134
REMARK   59  A    between atoms: _137  and  _139
REMARK   60  A    between atoms: _139  and  _140
REMARK   61  A    between atoms: _142  and  _144
REMARK   62  A    between atoms: _144  and  _145
REMARK   63  A    between atoms: _147  and  _149
REMARK   64  A    between atoms: _149  and  _150
REMARK   65  A    between atoms: _149  and  _152
REMARK   66  A    between atoms: _152  and  _153
REMARK   67  A    between atoms: _159  and  _161
REMARK   68  A    between atoms: _161  and  _162
REMARK   69  A    between atoms: _161  and  _164
REMARK   70  A    between atoms: _164  and  _165
REMARK   71  A    between atoms: _168  and  _170
REMARK   72  A    between atoms: _170  and  _171
REMARK   73  A    between atoms: _170  and  _173
REMARK   74  A    between atoms: _176  and  _178
REMARK   75  A    between atoms: _178  and  _179
REMARK   76  A    between atoms: _178  and  _181
REMARK   77  A    between atoms: _181  and  _182
REMARK   78  A    between atoms: _186  and  _187
REMARK   79  A    between atoms: _192  and  _194
REMARK   80  A    between atoms: _194  and  _195
REMARK   81  A    between atoms: _194  and  _197
REMARK   82  A    between atoms: _197  and  _198
REMARK   83  A    between atoms: _202  and  _203
REMARK   84  A    between atoms: _208  and  _210
REMARK   85  A    between atoms: _210  and  _211
REMARK   86  A    between atoms: _210  and  _213
REMARK   87  A    between atoms: _216  and  _218
REMARK   88  A    between atoms: _218  and  _219
REMARK   89  A    between atoms: _218  and  _221
REMARK   90  A    between atoms: _221  and  _222
REMARK   91  A    between atoms: _227  and  _229
REMARK   92  A    between atoms: _229  and  _230
REMARK   93  A    between atoms: _229  and  _232
REMARK   94  A    between atoms: _232  and  _233
REMARK   95  A    between atoms: _236  and  _238
REMARK   96  A    between atoms: _238  and  _239
REMARK   97  A    between atoms: _238  and  _241
REMARK   98  A    between atoms: _241  and  _242
REMARK   99  A    between atoms: _245  and  _247
REMARK  100  A    between atoms: _247  and  _248
REMARK  101  A    between atoms: _250  and  _252
REMARK  102  A    between atoms: _252  and  _253
REMARK  103  A    between atoms: _252  and  _255
REMARK  104  A    between atoms: _255  and  _256
REMARK  105  A    between atoms: _256  and  _257
REMARK  106  A    between atoms: _257  and  _258
REMARK  107  A    between atoms: _267  and  _269
REMARK  108  A    between atoms: _269  and  _270
REMARK  109  A    between atoms: _269  and  _272
REMARK  110  A    between atoms: _272  and  _273
REMARK  111  A    between atoms: _278  and  _280
REMARK  112  A    between atoms: _280  and  _281
REMARK  113  A    between atoms: _280  and  _283
REMARK  114  A    between atoms: _283  and  _284
REMARK  115  A    between atoms: _284  and  _285
REMARK  116  A    between atoms: _285  and  _286
REMARK  117  A    between atoms: _295  and  _297
REMARK  118  A    between atoms: _297  and  _298
REMARK  119  A    between atoms: _297  and  _300
REMARK  120  A    between atoms: _300  and  _301
REMARK  121  A    between atoms: _304  and  _306
REMARK  122  A    between atoms: _306  and  _307
REMARK  123  A    between atoms: _306  and  _309
REMARK  124  A    between atoms: _309  and  _310
REMARK  125  A    between atoms: _313  and  _315
REMARK  126  A    between atoms: _315  and  _316
REMARK  127  A    between atoms: _315  and  _318
REMARK  128  A    between atoms: _318  and  _319
REMARK  129  A    between atoms: _322  and  _324
REMARK  130  A    between atoms: _324  and  _325
REMARK  131  A    between atoms: _324  and  _327
REMARK  132  A    between atoms: _327  and  _328
REMARK  133  A    between atoms: _331  and  _333
REMARK  134  A    between atoms: _333  and  _334
REMARK  135  A    between atoms: _336  and  _338
REMARK  136  A    between atoms: _338  and  _339
REMARK  137  A    between atoms: _342  and  _344
REMARK  138  A    between atoms: _344  and  _345
REMARK  139  A    between atoms: _344  and  _347
REMARK  140  A    between atoms: _347  and  _348
REMARK  141  A    between atoms: _351  and  _353
REMARK  142  A    between atoms: _353  and  _354
REMARK  143  A    between atoms: _353  and  _356
REMARK  144  A    between atoms: _356  and  _357
REMARK  145  A    between atoms: _360  and  _362
REMARK  146  A    between atoms: _362  and  _363
REMARK  147  A    between atoms: _362  and  _365
REMARK  148  A    between atoms: _365  and  _366
REMARK  149  A    between atoms: _369  and  _371
REMARK  150  A    between atoms: _371  and  _372
REMARK  151  A    between atoms: _371  and  _374
REMARK  152  A    between atoms: _377  and  _379
REMARK  153  A    between atoms: _379  and  _380
REMARK  154  A    between atoms: _379  and  _382
REMARK  155  A    between atoms: _382  and  _383
REMARK  156  A    between atoms: _383  and  _384
REMARK  157  A    between atoms: _384  and  _385
REMARK  158  A    between atoms: _385  and  _386
REMARK  159  A    between atoms: _390  and  _392
REMARK  160  A    between atoms: _392  and  _393
REMARK  161  A    between atoms: _392  and  _395
REMARK  162  A    between atoms: _395  and  _396
REMARK  163  A    between atoms: _396  and  _397
REMARK  164  A    between atoms: _399  and  _401
REMARK  165  A    between atoms: _401  and  _402
REMARK  166  A    between atoms: _401  and  _404
REMARK  167  A    between atoms: _404  and  _405
REMARK  168  A    between atoms: _408  and  _410
REMARK  169  A    between atoms: _410  and  _411
REMARK  170  A    between atoms: _413  and  _415
REMARK  171  A    between atoms: _415  and  _416
REMARK  172  A    between atoms: _418  and  _420
REMARK  173  A    between atoms: _420  and  _421
REMARK  174  A    between atoms: _420  and  _423
REMARK  175  A    between atoms: _423  and  _424
REMARK  176  A    between atoms: _427  and  _429
REMARK  177  A    between atoms: _429  and  _430
REMARK  178  A    between atoms: _432  and  _434
REMARK  179  A    between atoms: _434  and  _435
REMARK  180  A    between atoms: _437  and  _439
REMARK  181  A    between atoms: _439  and  _440
REMARK  182  A    between atoms: _439  and  _442
REMARK  183  A    between atoms: _442  and  _443
REMARK  184  A    between atoms: _449  and  _451
REMARK  185  A    between atoms: _451  and  _452
REMARK  186  A    between atoms: _451  and  _454
REMARK  187  A    between atoms: _454  and  _455
REMARK  188  A    between atoms: _458  and  _460
REMARK  189  A    between atoms: _460  and  _461
REMARK  190  A    between atoms: _460  and  _463
REMARK  191  A    between atoms: _466  and  _468
REMARK  192  A    between atoms: _468  and  _469
REMARK  193  A    between atoms: _468  and  _471
REMARK  194  A    between atoms: _471  and  _472
REMARK  195  A    between atoms: _476  and  _477
REMARK  196  A    between atoms: _482  and  _484
REMARK  197  A    between atoms: _484  and  _485
REMARK  198  A    between atoms: _484  and  _487
REMARK  199  A    between atoms: _487  and  _488
REMARK  200  A    between atoms: _492  and  _493
REMARK  201  A    between atoms: _498  and  _500
REMARK  202  A    between atoms: _500  and  _501
REMARK  203  A    between atoms: _500  and  _503
REMARK  204  A    between atoms: _506  and  _508
REMARK  205  A    between atoms: _508  and  _509
REMARK  206  A    between atoms: _508  and  _511
REMARK  207  A    between atoms: _511  and  _512
REMARK  208  A    between atoms: _517  and  _519
REMARK  209  A    between atoms: _519  and  _520
REMARK  210  A    between atoms: _519  and  _522
REMARK  211  A    between atoms: _522  and  _523
REMARK  212  A    between atoms: _526  and  _528
REMARK  213  A    between atoms: _528  and  _529
REMARK  214  A    between atoms: _528  and  _531
REMARK  215  A    between atoms: _531  and  _532
REMARK  216  A    between atoms: _535  and  _537
REMARK  217  A    between atoms: _537  and  _538
REMARK  218  A    between atoms: _540  and  _542
REMARK  219  A    between atoms: _542  and  _543
REMARK  220  A    between atoms: _542  and  _545
REMARK  221  A    between atoms: _545  and  _546
REMARK  222  A    between atoms: _546  and  _547
REMARK  223  A    between atoms: _547  and  _548
REMARK  224  A    between atoms: _557  and  _559
REMARK  225  A    between atoms: _559  and  _560
REMARK  226  A    between atoms: _559  and  _562
REMARK  227  A    between atoms: _562  and  _563
REMARK                            x       y       z     vdW  Elec       q    Type
REMARK                         _______ _______ _______ _____ _____    ______ ____
ROOT
ATOM      1  O   HOH     1      24.163  21.090   8.515  0.00  0.00    +0.000 OA
ENDROOT
TORSDOF 0
REMARK  Name = ../refined-set-2016/4djo/4djo_pocket.pdb
REMARK  227 active torsions:
REMARK  status: ('A' for Active; 'I' for Inactive)
REMARK    1  A    between atoms: _1  and  _3
REMARK    2  A    between atoms: _3  and  _4
REMARK    3  A    between atoms: _3  and  _6
REMARK    4  A    between atoms: _6  and  _7
REMARK    5  A    between atoms: _7  and  _8
REMARK    6  A    between atoms: _8  and  _9
REMARK    7  A    between atoms: _18  and  _20
REMARK    8  A    between atoms: _20  and  _21
REMARK    9  A    between atoms: _20  and  _23
REMARK   10  A    between atoms: _23  and  _24
REMARK   11  A    between atoms: _27  and  _29
REMARK   12  A    between atoms: _29  and  _30
REMARK   13  A    between atoms: _29  and  _32
REMARK   14  A    between atoms: _32  and  _33
REMARK   15  A    between atoms: _36  and  _38
REMARK   16  A    between atoms: _38  and  _39
REMARK   17  A    between atoms: _38  and  _41
REMARK   18  A    between atoms: _41  and  _42
REMARK   19  A    between atoms: _45  and  _47
REMARK   20  A    between atoms: _47  and  _48
REMARK   21  A    between atoms: _47  and  _50
REMARK   22  A    between atoms: _50  and  _51
REMARK   23  A    between atoms: _54  and  _56
REMARK   24  A    between atoms: _56  and  _57
REMARK   25  A    between atoms: _59  and  _61
REMARK   26  A    between atoms: _61  and  _62
REMARK   27  A    between atoms: _65  and  _67
REMARK   28  A    between atoms: _67  and  _68
REMARK   29  A    between atoms: _67  and  _70
REMARK   30  A    between atoms: _70  and  _71
REMARK   31  A    between atoms: _74  and  _76
REMARK   32  A    between atoms: _76  and  _77
REMARK   33  A    between atoms: _76  and  _79
REMARK   34  A    between atoms: _79  and  _80
REMARK   35  A    between atoms: _83  and  _85
REMARK   36  A    between atoms: _85  and  _86
REMARK   37  A    between atoms: _85  and  _88
REMARK   38  A    between atoms: _88  and  _89
REMARK   39  A    between atoms: _92  and  _94
REMARK   40  A    between atoms: _94  and  _95
REMARK   41  A    between atoms: _94  and  _97
REMARK   42  A    between atoms: _100  and  _102
REMARK   43  A    between atoms: _102  and  _103
REMARK   44  A    between atoms: _102  and  _105
REMARK   45  A    between atoms: _105  and  _106
REMARK   46  A    between atoms: _106  and  _107
REMARK   47  A    between atoms: _109  and  _111
REMARK   48  A    between atoms: _111  and  _112
REMARK   49  A    between atoms: _111  and  _114
REMARK   50  A    between atoms: _114  and  _115
REMARK   51  A    between atoms: _118  and  _120
REMARK   52  A    between atoms: _120  and  _121
REMARK   53  A    between atoms: _123  and  _125
REMARK   54  A    between atoms: _125  and  _126
REMARK   55  A    between atoms: _128  and  _130
REMARK   56  A    between atoms: _130  and  _131
REMARK   57  A    between atoms: _130  and  _133
REMARK   58  A    between atoms: _133  and  _134
REMARK   59  A    between atoms: _137  and  _139
REMARK   60  A    between atoms: _139  and  _140
REMARK   61  A    between atoms: _142  and  _144
REMARK   62  A    between atoms: _144  and  _145
REMARK   63  A    between atoms: _147  and  _149
REMARK   64  A    between atoms: _149  and  _150
REMARK   65  A    between atoms: _149  and  _152
REMARK   66  A    between atoms: _152  and  _153
REMARK   67  A    between atoms: _159  and  _161
REMARK   68  A    between atoms: _161  and  _162
REMARK   69  A    between atoms: _161  and  _164
REMARK   70  A    between atoms: _164  and  _165
REMARK   71  A    between atoms: _168  and  _170
REMARK   72  A    between atoms: _170  and  _171
REMARK   73  A    between atoms: _170  and  _173
REMARK   74  A    between atoms: _176  and  _178
REMARK   75  A    between atoms: _178  and  _179
REMARK   76  A    between atoms: _178  and  _181
REMARK   77  A    between atoms: _181  and  _182
REMARK   78  A    between atoms: _186  and  _187
REMARK   79  A    between atoms: _192  and  _194
REMARK   80  A    between atoms: _194  and  _195
REMARK   81  A    between atoms: _194  and  _197
REMARK   82  A    between atoms: _197  and  _198
REMARK   83  A    between atoms: _202  and  _203
REMARK   84  A    between atoms: _208  and  _210
REMARK   85  A    between atoms: _210  and  _211
REMARK   86  A    between atoms: _210  and  _213
REMARK   87  A    between atoms: _216  and  _218
REMARK   88  A    between atoms: _218  and  _219
REMARK   89  A    between atoms: _218  and  _221
REMARK   90  A    between atoms: _221  and  _222
REMARK   91  A    between atoms: _227  and  _229
REMARK   92  A    between atoms: _229  and  _230
REMARK   93  A    between atoms: _229  and  _232
REMARK   94  A    between atoms: _232  and  _233
REMARK   95  A    between atoms: _236  and  _238
REMARK   96  A    between atoms: _238  and  _239
REMARK   97  A    between atoms: _238  and  _241
REMARK   98  A    between atoms: _241  and  _242
REMARK   99  A    between atoms: _245  and  _247
REMARK  100  A    between atoms: _247  and  _248
REMARK  101  A    between atoms: _250  and  _252
REMARK  102  A    between atoms: _252  and  _253
REMARK  103  A    between atoms: _252  and  _255
REMARK  104  A    between atoms: _255  and  _256
REMARK  105  A    between atoms: _256  and  _257
REMARK  106  A    between atoms: _257  and  _258
REMARK  107  A    between atoms: _267  and  _269
REMARK  108  A    between atoms: _269  and  _270
REMARK  109  A    between atoms: _269  and  _272
REMARK  110  A    between atoms: _272  and  _273
REMARK  111  A    between atoms: _278  and  _280
REMARK  112  A    between atoms: _280  and  _281
REMARK  113  A    between atoms: _280  and  _283
REMARK  114  A    between atoms: _283  and  _284
REMARK  115  A    between atoms: _284  and  _285
REMARK  116  A    between atoms: _285  and  _286
REMARK  117  A    between atoms: _295  and  _297
REMARK  118  A    between atoms: _297  and  _298
REMARK  119  A    between atoms: _297  and  _300
REMARK  120  A    between atoms: _300  and  _301
REMARK  121  A    between atoms: _304  and  _306
REMARK  122  A    between atoms: _306  and  _307
REMARK  123  A    between atoms: _306  and  _309
REMARK  124  A    between atoms: _309  and  _310
REMARK  125  A    between atoms: _313  and  _315
REMARK  126  A    between atoms: _315  and  _316
REMARK  127  A    between atoms: _315  and  _318
REMARK  128  A    between atoms: _318  and  _319
REMARK  129  A    between atoms: _322  and  _324
REMARK  130  A    between atoms: _324  and  _325
REMARK  131  A    between atoms: _324  and  _327
REMARK  132  A    between atoms: _327  and  _328
REMARK  133  A    between atoms: _331  and  _333
REMARK  134  A    between atoms: _333  and  _334
REMARK  135  A    between atoms: _336  and  _338
REMARK  136  A    between atoms: _338  and  _339
REMARK  137  A    between atoms: _342  and  _344
REMARK  138  A    between atoms: _344  and  _345
REMARK  139  A    between atoms: _344  and  _347
REMARK  140  A    between atoms: _347  and  _348
REMARK  141  A    between atoms: _351  and  _353
REMARK  142  A    between atoms: _353  and  _354
REMARK  143  A    between atoms: _353  and  _356
REMARK  144  A    between atoms: _356  and  _357
REMARK  145  A    between atoms: _360  and  _362
REMARK  146  A    between atoms: _362  and  _363
REMARK  147  A    between atoms: _362  and  _365
REMARK  148  A    between atoms: _365  and  _366
REMARK  149  A    between atoms: _369  and  _371
REMARK  150  A    between atoms: _371  and  _372
REMARK  151  A    between atoms: _371  and  _374
REMARK  152  A    between atoms: _377  and  _379
REMARK  153  A    between atoms: _379  and  _380
REMARK  154  A    between atoms: _379  and  _382
REMARK  155  A    between atoms: _382  and  _383
REMARK  156  A    between atoms: _383  and  _384
REMARK  157  A    between atoms: _384  and  _385
REMARK  158  A    between atoms: _385  and  _386
REMARK  159  A    between atoms: _390  and  _392
REMARK  160  A    between atoms: _392  and  _393
REMARK  161  A    between atoms: _392  and  _395
REMARK  162  A    between atoms: _395  and  _396
REMARK  163  A    between atoms: _396  and  _397
REMARK  164  A    between atoms: _399  and  _401
REMARK  165  A    between atoms: _401  and  _402
REMARK  166  A    between atoms: _401  and  _404
REMARK  167  A    between atoms: _404  and  _405
REMARK  168  A    between atoms: _408  and  _410
REMARK  169  A    between atoms: _410  and  _411
REMARK  170  A    between atoms: _413  and  _415
REMARK  171  A    between atoms: _415  and  _416
REMARK  172  A    between atoms: _418  and  _420
REMARK  173  A    between atoms: _420  and  _421
REMARK  174  A    between atoms: _420  and  _423
REMARK  175  A    between atoms: _423  and  _424
REMARK  176  A    between atoms: _427  and  _429
REMARK  177  A    between atoms: _429  and  _430
REMARK  178  A    between atoms: _432  and  _434
REMARK  179  A    between atoms: _434  and  _435
REMARK  180  A    between atoms: _437  and  _439
REMARK  181  A    between atoms: _439  and  _440
REMARK  182  A    between atoms: _439  and  _442
REMARK  183  A    between atoms: _442  and  _443
REMARK  184  A    between atoms: _449  and  _451
REMARK  185  A    between atoms: _451  and  _452
REMARK  186  A    between atoms: _451  and  _454
REMARK  187  A    between atoms: _454  and  _455
REMARK  188  A    between atoms: _458  and  _460
REMARK  189  A    between atoms: _460  and  _461
REMARK  190  A    between atoms: _460  and  _463
REMARK  191  A    between atoms: _466  and  _468
REMARK  192  A    between atoms: _468  and  _469
REMARK  193  A    between atoms: _468  and  _471
REMARK  194  A    between atoms: _471  and  _472
REMARK  195  A    between atoms: _476  and  _477
REMARK  196  A    between atoms: _482  and  _484
REMARK  197  A    between atoms: _484  and  _485
REMARK  198  A    between atoms: _484  and  _487
REMARK  199  A    between atoms: _487  and  _488
REMARK  200  A    between atoms: _492  and  _493
REMARK  201  A    between atoms: _498  and  _500
REMARK  202  A    between atoms: _500  and  _501
REMARK  203  A    between atoms: _500  and  _503
REMARK  204  A    between atoms: _506  and  _508
REMARK  205  A    between atoms: _508  and  _509
REMARK  206  A    between atoms: _508  and  _511
REMARK  207  A    between atoms: _511  and  _512
REMARK  208  A    between atoms: _517  and  _519
REMARK  209  A    between atoms: _519  and  _520
REMARK  210  A    between atoms: _519  and  _522
REMARK  211  A    between atoms: _522  and  _523
REMARK  212  A    between atoms: _526  and  _528
REMARK  213  A    between atoms: _528  and  _529
REMARK  214  A    between atoms: _528  and  _531
REMARK  215  A    between atoms: _531  and  _532
REMARK  216  A    between atoms: _535  and  _537
REMARK  217  A    between atoms: _537  and  _538
REMARK  218  A    between atoms: _540  and  _542
REMARK  219  A    between atoms: _542  and  _543
REMARK  220  A    between atoms: _542  and  _545
REMARK  221  A    between atoms: _545  and  _546
REMARK  222  A    between atoms: _546  and  _547
REMARK  223  A    between atoms: _547  and  _548
REMARK  224  A    between atoms: _557  and  _559
REMARK  225  A    between atoms: _559  and  _560
REMARK  226  A    between atoms: _559  and  _562
REMARK  227  A    between atoms: _562  and  _563
REMARK                            x       y       z     vdW  Elec       q    Type
REMARK                         _______ _______ _______ _____ _____    ______ ____
ROOT
ATOM      1  O   HOH     1      26.172  18.262  13.524  0.00  0.00    +0.000 OA
ENDROOT
TORSDOF 0
REMARK  Name = ../refined-set-2016/4djo/4djo_pocket.pdb
REMARK  227 active torsions:
REMARK  status: ('A' for Active; 'I' for Inactive)
REMARK    1  A    between atoms: _1  and  _3
REMARK    2  A    between atoms: _3  and  _4
REMARK    3  A    between atoms: _3  and  _6
REMARK    4  A    between atoms: _6  and  _7
REMARK    5  A    between atoms: _7  and  _8
REMARK    6  A    between atoms: _8  and  _9
REMARK    7  A    between atoms: _18  and  _20
REMARK    8  A    between atoms: _20  and  _21
REMARK    9  A    between atoms: _20  and  _23
REMARK   10  A    between atoms: _23  and  _24
REMARK   11  A    between atoms: _27  and  _29
REMARK   12  A    between atoms: _29  and  _30
REMARK   13  A    between atoms: _29  and  _32
REMARK   14  A    between atoms: _32  and  _33
REMARK   15  A    between atoms: _36  and  _38
REMARK   16  A    between atoms: _38  and  _39
REMARK   17  A    between atoms: _38  and  _41
REMARK   18  A    between atoms: _41  and  _42
REMARK   19  A    between atoms: _45  and  _47
REMARK   20  A    between atoms: _47  and  _48
REMARK   21  A    between atoms: _47  and  _50
REMARK   22  A    between atoms: _50  and  _51
REMARK   23  A    between atoms: _54  and  _56
REMARK   24  A    between atoms: _56  and  _57
REMARK   25  A    between atoms: _59  and  _61
REMARK   26  A    between atoms: _61  and  _62
REMARK   27  A    between atoms: _65  and  _67
REMARK   28  A    between atoms: _67  and  _68
REMARK   29  A    between atoms: _67  and  _70
REMARK   30  A    between atoms: _70  and  _71
REMARK   31  A    between atoms: _74  and  _76
REMARK   32  A    between atoms: _76  and  _77
REMARK   33  A    between atoms: _76  and  _79
REMARK   34  A    between atoms: _79  and  _80
REMARK   35  A    between atoms: _83  and  _85
REMARK   36  A    between atoms: _85  and  _86
REMARK   37  A    between atoms: _85  and  _88
REMARK   38  A    between atoms: _88  and  _89
REMARK   39  A    between atoms: _92  and  _94
REMARK   40  A    between atoms: _94  and  _95
REMARK   41  A    between atoms: _94  and  _97
REMARK   42  A    between atoms: _100  and  _102
REMARK   43  A    between atoms: _102  and  _103
REMARK   44  A    between atoms: _102  and  _105
REMARK   45  A    between atoms: _105  and  _106
REMARK   46  A    between atoms: _106  and  _107
REMARK   47  A    between atoms: _109  and  _111
REMARK   48  A    between atoms: _111  and  _112
REMARK   49  A    between atoms: _111  and  _114
REMARK   50  A    between atoms: _114  and  _115
REMARK   51  A    between atoms: _118  and  _120
REMARK   52  A    between atoms: _120  and  _121
REMARK   53  A    between atoms: _123  and  _125
REMARK   54  A    between atoms: _125  and  _126
REMARK   55  A    between atoms: _128  and  _130
REMARK   56  A    between atoms: _130  and  _131
REMARK   57  A    between atoms: _130  and  _133
REMARK   58  A    between atoms: _133  and  _134
REMARK   59  A    between atoms: _137  and  _139
REMARK   60  A    between atoms: _139  and  _140
REMARK   61  A    between atoms: _142  and  _144
REMARK   62  A    between atoms: _144  and  _145
REMARK   63  A    between atoms: _147  and  _149
REMARK   64  A    between atoms: _149  and  _150
REMARK   65  A    between atoms: _149  and  _152
REMARK   66  A    between atoms: _152  and  _153
REMARK   67  A    between atoms: _159  and  _161
REMARK   68  A    between atoms: _161  and  _162
REMARK   69  A    between atoms: _161  and  _164
REMARK   70  A    between atoms: _164  and  _165
REMARK   71  A    between atoms: _168  and  _170
REMARK   72  A    between atoms: _170  and  _171
REMARK   73  A    between atoms: _170  and  _173
REMARK   74  A    between atoms: _176  and  _178
REMARK   75  A    between atoms: _178  and  _179
REMARK   76  A    between atoms: _178  and  _181
REMARK   77  A    between atoms: _181  and  _182
REMARK   78  A    between atoms: _186  and  _187
REMARK   79  A    between atoms: _192  and  _194
REMARK   80  A    between atoms: _194  and  _195
REMARK   81  A    between atoms: _194  and  _197
REMARK   82  A    between atoms: _197  and  _198
REMARK   83  A    between atoms: _202  and  _203
REMARK   84  A    between atoms: _208  and  _210
REMARK   85  A    between atoms: _210  and  _211
REMARK   86  A    between atoms: _210  and  _213
REMARK   87  A    between atoms: _216  and  _218
REMARK   88  A    between atoms: _218  and  _219
REMARK   89  A    between atoms: _218  and  _221
REMARK   90  A    between atoms: _221  and  _222
REMARK   91  A    between atoms: _227  and  _229
REMARK   92  A    between atoms: _229  and  _230
REMARK   93  A    between atoms: _229  and  _232
REMARK   94  A    between atoms: _232  and  _233
REMARK   95  A    between atoms: _236  and  _238
REMARK   96  A    between atoms: _238  and  _239
REMARK   97  A    between atoms: _238  and  _241
REMARK   98  A    between atoms: _241  and  _242
REMARK   99  A    between atoms: _245  and  _247
REMARK  100  A    between atoms: _247  and  _248
REMARK  101  A    between atoms: _250  and  _252
REMARK  102  A    between atoms: _252  and  _253
REMARK  103  A    between atoms: _252  and  _255
REMARK  104  A    between atoms: _255  and  _256
REMARK  105  A    between atoms: _256  and  _257
REMARK  106  A    between atoms: _257  and  _258
REMARK  107  A    between atoms: _267  and  _269
REMARK  108  A    between atoms: _269  and  _270
REMARK  109  A    between atoms: _269  and  _272
REMARK  110  A    between atoms: _272  and  _273
REMARK  111  A    between atoms: _278  and  _280
REMARK  112  A    between atoms: _280  and  _281
REMARK  113  A    between atoms: _280  and  _283
REMARK  114  A    between atoms: _283  and  _284
REMARK  115  A    between atoms: _284  and  _285
REMARK  116  A    between atoms: _285  and  _286
REMARK  117  A    between atoms: _295  and  _297
REMARK  118  A    between atoms: _297  and  _298
REMARK  119  A    between atoms: _297  and  _300
REMARK  120  A    between atoms: _300  and  _301
REMARK  121  A    between atoms: _304  and  _306
REMARK  122  A    between atoms: _306  and  _307
REMARK  123  A    between atoms: _306  and  _309
REMARK  124  A    between atoms: _309  and  _310
REMARK  125  A    between atoms: _313  and  _315
REMARK  126  A    between atoms: _315  and  _316
REMARK  127  A    between atoms: _315  and  _318
REMARK  128  A    between atoms: _318  and  _319
REMARK  129  A    between atoms: _322  and  _324
REMARK  130  A    between atoms: _324  and  _325
REMARK  131  A    between atoms: _324  and  _327
REMARK  132  A    between atoms: _327  and  _328
REMARK  133  A    between atoms: _331  and  _333
REMARK  134  A    between atoms: _333  and  _334
REMARK  135  A    between atoms: _336  and  _338
REMARK  136  A    between atoms: _338  and  _339
REMARK  137  A    between atoms: _342  and  _344
REMARK  138  A    between atoms: _344  and  _345
REMARK  139  A    between atoms: _344  and  _347
REMARK  140  A    between atoms: _347  and  _348
REMARK  141  A    between atoms: _351  and  _353
REMARK  142  A    between atoms: _353  and  _354
REMARK  143  A    between atoms: _353  and  _356
REMARK  144  A    between atoms: _356  and  _357
REMARK  145  A    between atoms: _360  and  _362
REMARK  146  A    between atoms: _362  and  _363
REMARK  147  A    between atoms: _362  and  _365
REMARK  148  A    between atoms: _365  and  _366
REMARK  149  A    between atoms: _369  and  _371
REMARK  150  A    between atoms: _371  and  _372
REMARK  151  A    between atoms: _371  and  _374
REMARK  152  A    between atoms: _377  and  _379
REMARK  153  A    between atoms: _379  and  _380
REMARK  154  A    between atoms: _379  and  _382
REMARK  155  A    between atoms: _382  and  _383
REMARK  156  A    between atoms: _383  and  _384
REMARK  157  A    between atoms: _384  and  _385
REMARK  158  A    between atoms: _385  and  _386
REMARK  159  A    between atoms: _390  and  _392
REMARK  160  A    between atoms: _392  and  _393
REMARK  161  A    between atoms: _392  and  _395
REMARK  162  A    between atoms: _395  and  _396
REMARK  163  A    between atoms: _396  and  _397
REMARK  164  A    between atoms: _399  and  _401
REMARK  165  A    between atoms: _401  and  _402
REMARK  166  A    between atoms: _401  and  _404
REMARK  167  A    between atoms: _404  and  _405
REMARK  168  A    between atoms: _408  and  _410
REMARK  169  A    between atoms: _410  and  _411
REMARK  170  A    between atoms: _413  and  _415
REMARK  171  A    between atoms: _415  and  _416
REMARK  172  A    between atoms: _418  and  _420
REMARK  173  A    between atoms: _420  and  _421
REMARK  174  A    between atoms: _420  and  _423
REMARK  175  A    between atoms: _423  and  _424
REMARK  176  A    between atoms: _427  and  _429
REMARK  177  A    between atoms: _429  and  _430
REMARK  178  A    between atoms: _432  and  _434
REMARK  179  A    between atoms: _434  and  _435
REMARK  180  A    between atoms: _437  and  _439
REMARK  181  A    between atoms: _439  and  _440
REMARK  182  A    between atoms: _439  and  _442
REMARK  183  A    between atoms: _442  and  _443
REMARK  184  A    between atoms: _449  and  _451
REMARK  185  A    between atoms: _451  and  _452
REMARK  186  A    between atoms: _451  and  _454
REMARK  187  A    between atoms: _454  and  _455
REMARK  188  A    between atoms: _458  and  _460
REMARK  189  A    between atoms: _460  and  _461
REMARK  190  A    between atoms: _460  and  _463
REMARK  191  A    between atoms: _466  and  _468
REMARK  192  A    between atoms: _468  and  _469
REMARK  193  A    between atoms: _468  and  _471
REMARK  194  A    between atoms: _471  and  _472
REMARK  195  A    between atoms: _476  and  _477
REMARK  196  A    between atoms: _482  and  _484
REMARK  197  A    between atoms: _484  and  _485
REMARK  198  A    between atoms: _484  and  _487
REMARK  199  A    between atoms: _487  and  _488
REMARK  200  A    between atoms: _492  and  _493
REMARK  201  A    between atoms: _498  and  _500
REMARK  202  A    between atoms: _500  and  _501
REMARK  203  A    between atoms: _500  and  _503
REMARK  204  A    between atoms: _506  and  _508
REMARK  205  A    between atoms: _508  and  _509
REMARK  206  A    between atoms: _508  and  _511
REMARK  207  A    between atoms: _511  and  _512
REMARK  208  A    between atoms: _517  and  _519
REMARK  209  A    between atoms: _519  and  _520
REMARK  210  A    between atoms: _519  and  _522
REMARK  211  A    between atoms: _522  and  _523
REMARK  212  A    between atoms: _526  and  _528
REMARK  213  A    between atoms: _528  and  _529
REMARK  214  A    between atoms: _528  and  _531
REMARK  215  A    between atoms: _531  and  _532
REMARK  216  A    between atoms: _535  and  _537
REMARK  217  A    between atoms: _537  and  _538
REMARK  218  A    between atoms: _540  and  _542
REMARK  219  A    between atoms: _542  and  _543
REMARK  220  A    between atoms: _542  and  _545
REMARK  221  A    between atoms: _545  and  _546
REMARK  222  A    between atoms: _546  and  _547
REMARK  223  A    between atoms: _547  and  _548
REMARK  224  A    between atoms: _557  and  _559
REMARK  225  A    between atoms: _559  and  _560
REMARK  226  A    between atoms: _559  and  _562
REMARK  227  A    between atoms: _562  and  _563
REMARK                            x       y       z     vdW  Elec       q    Type
REMARK                         _______ _______ _______ _____ _____    ______ ____
ROOT
ATOM      1  O   HOH     1      24.897  36.972   8.351  0.00  0.00    +0.000 OA
ENDROOT
TORSDOF 0
REMARK  Name = ../refined-set-2016/4djo/4djo_pocket.pdb
REMARK  227 active torsions:
REMARK  status: ('A' for Active; 'I' for Inactive)
REMARK    1  A    between atoms: _1  and  _3
REMARK    2  A    between atoms: _3  and  _4
REMARK    3  A    between atoms: _3  and  _6
REMARK    4  A    between atoms: _6  and  _7
REMARK    5  A    between atoms: _7  and  _8
REMARK    6  A    between atoms: _8  and  _9
REMARK    7  A    between atoms: _18  and  _20
REMARK    8  A    between atoms: _20  and  _21
REMARK    9  A    between atoms: _20  and  _23
REMARK   10  A    between atoms: _23  and  _24
REMARK   11  A    between atoms: _27  and  _29
REMARK   12  A    between atoms: _29  and  _30
REMARK   13  A    between atoms: _29  and  _32
REMARK   14  A    between atoms: _32  and  _33
REMARK   15  A    between atoms: _36  and  _38
REMARK   16  A    between atoms: _38  and  _39
REMARK   17  A    between atoms: _38  and  _41
REMARK   18  A    between atoms: _41  and  _42
REMARK   19  A    between atoms: _45  and  _47
REMARK   20  A    between atoms: _47  and  _48
REMARK   21  A    between atoms: _47  and  _50
REMARK   22  A    between atoms: _50  and  _51
REMARK   23  A    between atoms: _54  and  _56
REMARK   24  A    between atoms: _56  and  _57
REMARK   25  A    between atoms: _59  and  _61
REMARK   26  A    between atoms: _61  and  _62
REMARK   27  A    between atoms: _65  and  _67
REMARK   28  A    between atoms: _67  and  _68
REMARK   29  A    between atoms: _67  and  _70
REMARK   30  A    between atoms: _70  and  _71
REMARK   31  A    between atoms: _74  and  _76
REMARK   32  A    between atoms: _76  and  _77
REMARK   33  A    between atoms: _76  and  _79
REMARK   34  A    between atoms: _79  and  _80
REMARK   35  A    between atoms: _83  and  _85
REMARK   36  A    between atoms: _85  and  _86
REMARK   37  A    between atoms: _85  and  _88
REMARK   38  A    between atoms: _88  and  _89
REMARK   39  A    between atoms: _92  and  _94
REMARK   40  A    between atoms: _94  and  _95
REMARK   41  A    between atoms: _94  and  _97
REMARK   42  A    between atoms: _100  and  _102
REMARK   43  A    between atoms: _102  and  _103
REMARK   44  A    between atoms: _102  and  _105
REMARK   45  A    between atoms: _105  and  _106
REMARK   46  A    between atoms: _106  and  _107
REMARK   47  A    between atoms: _109  and  _111
REMARK   48  A    between atoms: _111  and  _112
REMARK   49  A    between atoms: _111  and  _114
REMARK   50  A    between atoms: _114  and  _115
REMARK   51  A    between atoms: _118  and  _120
REMARK   52  A    between atoms: _120  and  _121
REMARK   53  A    between atoms: _123  and  _125
REMARK   54  A    between atoms: _125  and  _126
REMARK   55  A    between atoms: _128  and  _130
REMARK   56  A    between atoms: _130  and  _131
REMARK   57  A    between atoms: _130  and  _133
REMARK   58  A    between atoms: _133  and  _134
REMARK   59  A    between atoms: _137  and  _139
REMARK   60  A    between atoms: _139  and  _140
REMARK   61  A    between atoms: _142  and  _144
REMARK   62  A    between atoms: _144  and  _145
REMARK   63  A    between atoms: _147  and  _149
REMARK   64  A    between atoms: _149  and  _150
REMARK   65  A    between atoms: _149  and  _152
REMARK   66  A    between atoms: _152  and  _153
REMARK   67  A    between atoms: _159  and  _161
REMARK   68  A    between atoms: _161  and  _162
REMARK   69  A    between atoms: _161  and  _164
REMARK   70  A    between atoms: _164  and  _165
REMARK   71  A    between atoms: _168  and  _170
REMARK   72  A    between atoms: _170  and  _171
REMARK   73  A    between atoms: _170  and  _173
REMARK   74  A    between atoms: _176  and  _178
REMARK   75  A    between atoms: _178  and  _179
REMARK   76  A    between atoms: _178  and  _181
REMARK   77  A    between atoms: _181  and  _182
REMARK   78  A    between atoms: _186  and  _187
REMARK   79  A    between atoms: _192  and  _194
REMARK   80  A    between atoms: _194  and  _195
REMARK   81  A    between atoms: _194  and  _197
REMARK   82  A    between atoms: _197  and  _198
REMARK   83  A    between atoms: _202  and  _203
REMARK   84  A    between atoms: _208  and  _210
REMARK   85  A    between atoms: _210  and  _211
REMARK   86  A    between atoms: _210  and  _213
REMARK   87  A    between atoms: _216  and  _218
REMARK   88  A    between atoms: _218  and  _219
REMARK   89  A    between atoms: _218  and  _221
REMARK   90  A    between atoms: _221  and  _222
REMARK   91  A    between atoms: _227  and  _229
REMARK   92  A    between atoms: _229  and  _230
REMARK   93  A    between atoms: _229  and  _232
REMARK   94  A    between atoms: _232  and  _233
REMARK   95  A    between atoms: _236  and  _238
REMARK   96  A    between atoms: _238  and  _239
REMARK   97  A    between atoms: _238  and  _241
REMARK   98  A    between atoms: _241  and  _242
REMARK   99  A    between atoms: _245  and  _247
REMARK  100  A    between atoms: _247  and  _248
REMARK  101  A    between atoms: _250  and  _252
REMARK  102  A    between atoms: _252  and  _253
REMARK  103  A    between atoms: _252  and  _255
REMARK  104  A    between atoms: _255  and  _256
REMARK  105  A    between atoms: _256  and  _257
REMARK  106  A    between atoms: _257  and  _258
REMARK  107  A    between atoms: _267  and  _269
REMARK  108  A    between atoms: _269  and  _270
REMARK  109  A    between atoms: _269  and  _272
REMARK  110  A    between atoms: _272  and  _273
REMARK  111  A    between atoms: _278  and  _280
REMARK  112  A    between atoms: _280  and  _281
REMARK  113  A    between atoms: _280  and  _283
REMARK  114  A    between atoms: _283  and  _284
REMARK  115  A    between atoms: _284  and  _285
REMARK  116  A    between atoms: _285  and  _286
REMARK  117  A    between atoms: _295  and  _297
REMARK  118  A    between atoms: _297  and  _298
REMARK  119  A    between atoms: _297  and  _300
REMARK  120  A    between atoms: _300  and  _301
REMARK  121  A    between atoms: _304  and  _306
REMARK  122  A    between atoms: _306  and  _307
REMARK  123  A    between atoms: _306  and  _309
REMARK  124  A    between atoms: _309  and  _310
REMARK  125  A    between atoms: _313  and  _315
REMARK  126  A    between atoms: _315  and  _316
REMARK  127  A    between atoms: _315  and  _318
REMARK  128  A    between atoms: _318  and  _319
REMARK  129  A    between atoms: _322  and  _324
REMARK  130  A    between atoms: _324  and  _325
REMARK  131  A    between atoms: _324  and  _327
REMARK  132  A    between atoms: _327  and  _328
REMARK  133  A    between atoms: _331  and  _333
REMARK  134  A    between atoms: _333  and  _334
REMARK  135  A    between atoms: _336  and  _338
REMARK  136  A    between atoms: _338  and  _339
REMARK  137  A    between atoms: _342  and  _344
REMARK  138  A    between atoms: _344  and  _345
REMARK  139  A    between atoms: _344  and  _347
REMARK  140  A    between atoms: _347  and  _348
REMARK  141  A    between atoms: _351  and  _353
REMARK  142  A    between atoms: _353  and  _354
REMARK  143  A    between atoms: _353  and  _356
REMARK  144  A    between atoms: _356  and  _357
REMARK  145  A    between atoms: _360  and  _362
REMARK  146  A    between atoms: _362  and  _363
REMARK  147  A    between atoms: _362  and  _365
REMARK  148  A    between atoms: _365  and  _366
REMARK  149  A    between atoms: _369  and  _371
REMARK  150  A    between atoms: _371  and  _372
REMARK  151  A    between atoms: _371  and  _374
REMARK  152  A    between atoms: _377  and  _379
REMARK  153  A    between atoms: _379  and  _380
REMARK  154  A    between atoms: _379  and  _382
REMARK  155  A    between atoms: _382  and  _383
REMARK  156  A    between atoms: _383  and  _384
REMARK  157  A    between atoms: _384  and  _385
REMARK  158  A    between atoms: _385  and  _386
REMARK  159  A    between atoms: _390  and  _392
REMARK  160  A    between atoms: _392  and  _393
REMARK  161  A    between atoms: _392  and  _395
REMARK  162  A    between atoms: _395  and  _396
REMARK  163  A    between atoms: _396  and  _397
REMARK  164  A    between atoms: _399  and  _401
REMARK  165  A    between atoms: _401  and  _402
REMARK  166  A    between atoms: _401  and  _404
REMARK  167  A    between atoms: _404  and  _405
REMARK  168  A    between atoms: _408  and  _410
REMARK  169  A    between atoms: _410  and  _411
REMARK  170  A    between atoms: _413  and  _415
REMARK  171  A    between atoms: _415  and  _416
REMARK  172  A    between atoms: _418  and  _420
REMARK  173  A    between atoms: _420  and  _421
REMARK  174  A    between atoms: _420  and  _423
REMARK  175  A    between atoms: _423  and  _424
REMARK  176  A    between atoms: _427  and  _429
REMARK  177  A    between atoms: _429  and  _430
REMARK  178  A    between atoms: _432  and  _434
REMARK  179  A    between atoms: _434  and  _435
REMARK  180  A    between atoms: _437  and  _439
REMARK  181  A    between atoms: _439  and  _440
REMARK  182  A    between atoms: _439  and  _442
REMARK  183  A    between atoms: _442  and  _443
REMARK  184  A    between atoms: _449  and  _451
REMARK  185  A    between atoms: _451  and  _452
REMARK  186  A    between atoms: _451  and  _454
REMARK  187  A    between atoms: _454  and  _455
REMARK  188  A    between atoms: _458  and  _460
REMARK  189  A    between atoms: _460  and  _461
REMARK  190  A    between atoms: _460  and  _463
REMARK  191  A    between atoms: _466  and  _468
REMARK  192  A    between atoms: _468  and  _469
REMARK  193  A    between atoms: _468  and  _471
REMARK  194  A    between atoms: _471  and  _472
REMARK  195  A    between atoms: _476  and  _477
REMARK  196  A    between atoms: _482  and  _484
REMARK  197  A    between atoms: _484  and  _485
REMARK  198  A    between atoms: _484  and  _487
REMARK  199  A    between atoms: _487  and  _488
REMARK  200  A    between atoms: _492  and  _493
REMARK  201  A    between atoms: _498  and  _500
REMARK  202  A    between atoms: _500  and  _501
REMARK  203  A    between atoms: _500  and  _503
REMARK  204  A    between atoms: _506  and  _508
REMARK  205  A    between atoms: _508  and  _509
REMARK  206  A    between atoms: _508  and  _511
REMARK  207  A    between atoms: _511  and  _512
REMARK  208  A    between atoms: _517  and  _519
REMARK  209  A    between atoms: _519  and  _520
REMARK  210  A    between atoms: _519  and  _522
REMARK  211  A    between atoms: _522  and  _523
REMARK  212  A    between atoms: _526  and  _528
REMARK  213  A    between atoms: _528  and  _529
REMARK  214  A    between atoms: _528  and  _531
REMARK  215  A    between atoms: _531  and  _532
REMARK  216  A    between atoms: _535  and  _537
REMARK  217  A    between atoms: _537  and  _538
REMARK  218  A    between atoms: _540  and  _542
REMARK  219  A    between atoms: _542  and  _543
REMARK  220  A    between atoms: _542  and  _545
REMARK  221  A    between atoms: _545  and  _546
REMARK  222  A    between atoms: _546  and  _547
REMARK  223  A    between atoms: _547  and  _548
REMARK  224  A    between atoms: _557  and  _559
REMARK  225  A    between atoms: _559  and  _560
REMARK  226  A    between atoms: _559  and  _562
REMARK  227  A    between atoms: _562  and  _563
REMARK                            x       y       z     vdW  Elec       q    Type
REMARK                         _______ _______ _______ _____ _____    ______ ____
ROOT
ATOM      1  O   HOH     1      16.540  28.464   3.856  0.00  0.00    +0.000 OA
ENDROOT
TORSDOF 0
REMARK  Name = ../refined-set-2016/4djo/4djo_pocket.pdb
REMARK  227 active torsions:
REMARK  status: ('A' for Active; 'I' for Inactive)
REMARK    1  A    between atoms: _1  and  _3
REMARK    2  A    between atoms: _3  and  _4
REMARK    3  A    between atoms: _3  and  _6
REMARK    4  A    between atoms: _6  and  _7
REMARK    5  A    between atoms: _7  and  _8
REMARK    6  A    between atoms: _8  and  _9
REMARK    7  A    between atoms: _18  and  _20
REMARK    8  A    between atoms: _20  and  _21
REMARK    9  A    between atoms: _20  and  _23
REMARK   10  A    between atoms: _23  and  _24
REMARK   11  A    between atoms: _27  and  _29
REMARK   12  A    between atoms: _29  and  _30
REMARK   13  A    between atoms: _29  and  _32
REMARK   14  A    between atoms: _32  and  _33
REMARK   15  A    between atoms: _36  and  _38
REMARK   16  A    between atoms: _38  and  _39
REMARK   17  A    between atoms: _38  and  _41
REMARK   18  A    between atoms: _41  and  _42
REMARK   19  A    between atoms: _45  and  _47
REMARK   20  A    between atoms: _47  and  _48
REMARK   21  A    between atoms: _47  and  _50
REMARK   22  A    between atoms: _50  and  _51
REMARK   23  A    between atoms: _54  and  _56
REMARK   24  A    between atoms: _56  and  _57
REMARK   25  A    between atoms: _59  and  _61
REMARK   26  A    between atoms: _61  and  _62
REMARK   27  A    between atoms: _65  and  _67
REMARK   28  A    between atoms: _67  and  _68
REMARK   29  A    between atoms: _67  and  _70
REMARK   30  A    between atoms: _70  and  _71
REMARK   31  A    between atoms: _74  and  _76
REMARK   32  A    between atoms: _76  and  _77
REMARK   33  A    between atoms: _76  and  _79
REMARK   34  A    between atoms: _79  and  _80
REMARK   35  A    between atoms: _83  and  _85
REMARK   36  A    between atoms: _85  and  _86
REMARK   37  A    between atoms: _85  and  _88
REMARK   38  A    between atoms: _88  and  _89
REMARK   39  A    between atoms: _92  and  _94
REMARK   40  A    between atoms: _94  and  _95
REMARK   41  A    between atoms: _94  and  _97
REMARK   42  A    between atoms: _100  and  _102
REMARK   43  A    between atoms: _102  and  _103
REMARK   44  A    between atoms: _102  and  _105
REMARK   45  A    between atoms: _105  and  _106
REMARK   46  A    between atoms: _106  and  _107
REMARK   47  A    between atoms: _109  and  _111
REMARK   48  A    between atoms: _111  and  _112
REMARK   49  A    between atoms: _111  and  _114
REMARK   50  A    between atoms: _114  and  _115
REMARK   51  A    between atoms: _118  and  _120
REMARK   52  A    between atoms: _120  and  _121
REMARK   53  A    between atoms: _123  and  _125
REMARK   54  A    between atoms: _125  and  _126
REMARK   55  A    between atoms: _128  and  _130
REMARK   56  A    between atoms: _130  and  _131
REMARK   57  A    between atoms: _130  and  _133
REMARK   58  A    between atoms: _133  and  _134
REMARK   59  A    between atoms: _137  and  _139
REMARK   60  A    between atoms: _139  and  _140
REMARK   61  A    between atoms: _142  and  _144
REMARK   62  A    between atoms: _144  and  _145
REMARK   63  A    between atoms: _147  and  _149
REMARK   64  A    between atoms: _149  and  _150
REMARK   65  A    between atoms: _149  and  _152
REMARK   66  A    between atoms: _152  and  _153
REMARK   67  A    between atoms: _159  and  _161
REMARK   68  A    between atoms: _161  and  _162
REMARK   69  A    between atoms: _161  and  _164
REMARK   70  A    between atoms: _164  and  _165
REMARK   71  A    between atoms: _168  and  _170
REMARK   72  A    between atoms: _170  and  _171
REMARK   73  A    between atoms: _170  and  _173
REMARK   74  A    between atoms: _176  and  _178
REMARK   75  A    between atoms: _178  and  _179
REMARK   76  A    between atoms: _178  and  _181
REMARK   77  A    between atoms: _181  and  _182
REMARK   78  A    between atoms: _186  and  _187
REMARK   79  A    between atoms: _192  and  _194
REMARK   80  A    between atoms: _194  and  _195
REMARK   81  A    between atoms: _194  and  _197
REMARK   82  A    between atoms: _197  and  _198
REMARK   83  A    between atoms: _202  and  _203
REMARK   84  A    between atoms: _208  and  _210
REMARK   85  A    between atoms: _210  and  _211
REMARK   86  A    between atoms: _210  and  _213
REMARK   87  A    between atoms: _216  and  _218
REMARK   88  A    between atoms: _218  and  _219
REMARK   89  A    between atoms: _218  and  _221
REMARK   90  A    between atoms: _221  and  _222
REMARK   91  A    between atoms: _227  and  _229
REMARK   92  A    between atoms: _229  and  _230
REMARK   93  A    between atoms: _229  and  _232
REMARK   94  A    between atoms: _232  and  _233
REMARK   95  A    between atoms: _236  and  _238
REMARK   96  A    between atoms: _238  and  _239
REMARK   97  A    between atoms: _238  and  _241
REMARK   98  A    between atoms: _241  and  _242
REMARK   99  A    between atoms: _245  and  _247
REMARK  100  A    between atoms: _247  and  _248
REMARK  101  A    between atoms: _250  and  _252
REMARK  102  A    between atoms: _252  and  _253
REMARK  103  A    between atoms: _252  and  _255
REMARK  104  A    between atoms: _255  and  _256
REMARK  105  A    between atoms: _256  and  _257
REMARK  106  A    between atoms: _257  and  _258
REMARK  107  A    between atoms: _267  and  _269
REMARK  108  A    between atoms: _269  and  _270
REMARK  109  A    between atoms: _269  and  _272
REMARK  110  A    between atoms: _272  and  _273
REMARK  111  A    between atoms: _278  and  _280
REMARK  112  A    between atoms: _280  and  _281
REMARK  113  A    between atoms: _280  and  _283
REMARK  114  A    between atoms: _283  and  _284
REMARK  115  A    between atoms: _284  and  _285
REMARK  116  A    between atoms: _285  and  _286
REMARK  117  A    between atoms: _295  and  _297
REMARK  118  A    between atoms: _297  and  _298
REMARK  119  A    between atoms: _297  and  _300
REMARK  120  A    between atoms: _300  and  _301
REMARK  121  A    between atoms: _304  and  _306
REMARK  122  A    between atoms: _306  and  _307
REMARK  123  A    between atoms: _306  and  _309
REMARK  124  A    between atoms: _309  and  _310
REMARK  125  A    between atoms: _313  and  _315
REMARK  126  A    between atoms: _315  and  _316
REMARK  127  A    between atoms: _315  and  _318
REMARK  128  A    between atoms: _318  and  _319
REMARK  129  A    between atoms: _322  and  _324
REMARK  130  A    between atoms: _324  and  _325
REMARK  131  A    between atoms: _324  and  _327
REMARK  132  A    between atoms: _327  and  _328
REMARK  133  A    between atoms: _331  and  _333
REMARK  134  A    between atoms: _333  and  _334
REMARK  135  A    between atoms: _336  and  _338
REMARK  136  A    between atoms: _338  and  _339
REMARK  137  A    between atoms: _342  and  _344
REMARK  138  A    between atoms: _344  and  _345
REMARK  139  A    between atoms: _344  and  _347
REMARK  140  A    between atoms: _347  and  _348
REMARK  141  A    between atoms: _351  and  _353
REMARK  142  A    between atoms: _353  and  _354
REMARK  143  A    between atoms: _353  and  _356
REMARK  144  A    between atoms: _356  and  _357
REMARK  145  A    between atoms: _360  and  _362
REMARK  146  A    between atoms: _362  and  _363
REMARK  147  A    between atoms: _362  and  _365
REMARK  148  A    between atoms: _365  and  _366
REMARK  149  A    between atoms: _369  and  _371
REMARK  150  A    between atoms: _371  and  _372
REMARK  151  A    between atoms: _371  and  _374
REMARK  152  A    between atoms: _377  and  _379
REMARK  153  A    between atoms: _379  and  _380
REMARK  154  A    between atoms: _379  and  _382
REMARK  155  A    between atoms: _382  and  _383
REMARK  156  A    between atoms: _383  and  _384
REMARK  157  A    between atoms: _384  and  _385
REMARK  158  A    between atoms: _385  and  _386
REMARK  159  A    between atoms: _390  and  _392
REMARK  160  A    between atoms: _392  and  _393
REMARK  161  A    between atoms: _392  and  _395
REMARK  162  A    between atoms: _395  and  _396
REMARK  163  A    between atoms: _396  and  _397
REMARK  164  A    between atoms: _399  and  _401
REMARK  165  A    between atoms: _401  and  _402
REMARK  166  A    between atoms: _401  and  _404
REMARK  167  A    between atoms: _404  and  _405
REMARK  168  A    between atoms: _408  and  _410
REMARK  169  A    between atoms: _410  and  _411
REMARK  170  A    between atoms: _413  and  _415
REMARK  171  A    between atoms: _415  and  _416
REMARK  172  A    between atoms: _418  and  _420
REMARK  173  A    between atoms: _420  and  _421
REMARK  174  A    between atoms: _420  and  _423
REMARK  175  A    between atoms: _423  and  _424
REMARK  176  A    between atoms: _427  and  _429
REMARK  177  A    between atoms: _429  and  _430
REMARK  178  A    between atoms: _432  and  _434
REMARK  179  A    between atoms: _434  and  _435
REMARK  180  A    between atoms: _437  and  _439
REMARK  181  A    between atoms: _439  and  _440
REMARK  182  A    between atoms: _439  and  _442
REMARK  183  A    between atoms: _442  and  _443
REMARK  184  A    between atoms: _449  and  _451
REMARK  185  A    between atoms: _451  and  _452
REMARK  186  A    between atoms: _451  and  _454
REMARK  187  A    between atoms: _454  and  _455
REMARK  188  A    between atoms: _458  and  _460
REMARK  189  A    between atoms: _460  and  _461
REMARK  190  A    between atoms: _460  and  _463
REMARK  191  A    between atoms: _466  and  _468
REMARK  192  A    between atoms: _468  and  _469
REMARK  193  A    between atoms: _468  and  _471
REMARK  194  A    between atoms: _471  and  _472
REMARK  195  A    between atoms: _476  and  _477
REMARK  196  A    between atoms: _482  and  _484
REMARK  197  A    between atoms: _484  and  _485
REMARK  198  A    between atoms: _484  and  _487
REMARK  199  A    between atoms: _487  and  _488
REMARK  200  A    between atoms: _492  and  _493
REMARK  201  A    between atoms: _498  and  _500
REMARK  202  A    between atoms: _500  and  _501
REMARK  203  A    between atoms: _500  and  _503
REMARK  204  A    between atoms: _506  and  _508
REMARK  205  A    between atoms: _508  and  _509
REMARK  206  A    between atoms: _508  and  _511
REMARK  207  A    between atoms: _511  and  _512
REMARK  208  A    between atoms: _517  and  _519
REMARK  209  A    between atoms: _519  and  _520
REMARK  210  A    between atoms: _519  and  _522
REMARK  211  A    between atoms: _522  and  _523
REMARK  212  A    between atoms: _526  and  _528
REMARK  213  A    between atoms: _528  and  _529
REMARK  214  A    between atoms: _528  and  _531
REMARK  215  A    between atoms: _531  and  _532
REMARK  216  A    between atoms: _535  and  _537
REMARK  217  A    between atoms: _537  and  _538
REMARK  218  A    between atoms: _540  and  _542
REMARK  219  A    between atoms: _542  and  _543
REMARK  220  A    between atoms: _542  and  _545
REMARK  221  A    between atoms: _545  and  _546
REMARK  222  A    between atoms: _546  and  _547
REMARK  223  A    between atoms: _547  and  _548
REMARK  224  A    between atoms: _557  and  _559
REMARK  225  A    between atoms: _559  and  _560
REMARK  226  A    between atoms: _559  and  _562
REMARK  227  A    between atoms: _562  and  _563
REMARK                            x       y       z     vdW  Elec       q    Type
REMARK                         _______ _______ _______ _____ _____    ______ ____
ROOT
ATOM      1  O   HOH     1      18.589  28.894   5.574  0.00  0.00    +0.000 OA
ENDROOT
TORSDOF 0
REMARK  Name = ../refined-set-2016/4djo/4djo_pocket.pdb
REMARK  227 active torsions:
REMARK  status: ('A' for Active; 'I' for Inactive)
REMARK    1  A    between atoms: _1  and  _3
REMARK    2  A    between atoms: _3  and  _4
REMARK    3  A    between atoms: _3  and  _6
REMARK    4  A    between atoms: _6  and  _7
REMARK    5  A    between atoms: _7  and  _8
REMARK    6  A    between atoms: _8  and  _9
REMARK    7  A    between atoms: _18  and  _20
REMARK    8  A    between atoms: _20  and  _21
REMARK    9  A    between atoms: _20  and  _23
REMARK   10  A    between atoms: _23  and  _24
REMARK   11  A    between atoms: _27  and  _29
REMARK   12  A    between atoms: _29  and  _30
REMARK   13  A    between atoms: _29  and  _32
REMARK   14  A    between atoms: _32  and  _33
REMARK   15  A    between atoms: _36  and  _38
REMARK   16  A    between atoms: _38  and  _39
REMARK   17  A    between atoms: _38  and  _41
REMARK   18  A    between atoms: _41  and  _42
REMARK   19  A    between atoms: _45  and  _47
REMARK   20  A    between atoms: _47  and  _48
REMARK   21  A    between atoms: _47  and  _50
REMARK   22  A    between atoms: _50  and  _51
REMARK   23  A    between atoms: _54  and  _56
REMARK   24  A    between atoms: _56  and  _57
REMARK   25  A    between atoms: _59  and  _61
REMARK   26  A    between atoms: _61  and  _62
REMARK   27  A    between atoms: _65  and  _67
REMARK   28  A    between atoms: _67  and  _68
REMARK   29  A    between atoms: _67  and  _70
REMARK   30  A    between atoms: _70  and  _71
REMARK   31  A    between atoms: _74  and  _76
REMARK   32  A    between atoms: _76  and  _77
REMARK   33  A    between atoms: _76  and  _79
REMARK   34  A    between atoms: _79  and  _80
REMARK   35  A    between atoms: _83  and  _85
REMARK   36  A    between atoms: _85  and  _86
REMARK   37  A    between atoms: _85  and  _88
REMARK   38  A    between atoms: _88  and  _89
REMARK   39  A    between atoms: _92  and  _94
REMARK   40  A    between atoms: _94  and  _95
REMARK   41  A    between atoms: _94  and  _97
REMARK   42  A    between atoms: _100  and  _102
REMARK   43  A    between atoms: _102  and  _103
REMARK   44  A    between atoms: _102  and  _105
REMARK   45  A    between atoms: _105  and  _106
REMARK   46  A    between atoms: _106  and  _107
REMARK   47  A    between atoms: _109  and  _111
REMARK   48  A    between atoms: _111  and  _112
REMARK   49  A    between atoms: _111  and  _114
REMARK   50  A    between atoms: _114  and  _115
REMARK   51  A    between atoms: _118  and  _120
REMARK   52  A    between atoms: _120  and  _121
REMARK   53  A    between atoms: _123  and  _125
REMARK   54  A    between atoms: _125  and  _126
REMARK   55  A    between atoms: _128  and  _130
REMARK   56  A    between atoms: _130  and  _131
REMARK   57  A    between atoms: _130  and  _133
REMARK   58  A    between atoms: _133  and  _134
REMARK   59  A    between atoms: _137  and  _139
REMARK   60  A    between atoms: _139  and  _140
REMARK   61  A    between atoms: _142  and  _144
REMARK   62  A    between atoms: _144  and  _145
REMARK   63  A    between atoms: _147  and  _149
REMARK   64  A    between atoms: _149  and  _150
REMARK   65  A    between atoms: _149  and  _152
REMARK   66  A    between atoms: _152  and  _153
REMARK   67  A    between atoms: _159  and  _161
REMARK   68  A    between atoms: _161  and  _162
REMARK   69  A    between atoms: _161  and  _164
REMARK   70  A    between atoms: _164  and  _165
REMARK   71  A    between atoms: _168  and  _170
REMARK   72  A    between atoms: _170  and  _171
REMARK   73  A    between atoms: _170  and  _173
REMARK   74  A    between atoms: _176  and  _178
REMARK   75  A    between atoms: _178  and  _179
REMARK   76  A    between atoms: _178  and  _181
REMARK   77  A    between atoms: _181  and  _182
REMARK   78  A    between atoms: _186  and  _187
REMARK   79  A    between atoms: _192  and  _194
REMARK   80  A    between atoms: _194  and  _195
REMARK   81  A    between atoms: _194  and  _197
REMARK   82  A    between atoms: _197  and  _198
REMARK   83  A    between atoms: _202  and  _203
REMARK   84  A    between atoms: _208  and  _210
REMARK   85  A    between atoms: _210  and  _211
REMARK   86  A    between atoms: _210  and  _213
REMARK   87  A    between atoms: _216  and  _218
REMARK   88  A    between atoms: _218  and  _219
REMARK   89  A    between atoms: _218  and  _221
REMARK   90  A    between atoms: _221  and  _222
REMARK   91  A    between atoms: _227  and  _229
REMARK   92  A    between atoms: _229  and  _230
REMARK   93  A    between atoms: _229  and  _232
REMARK   94  A    between atoms: _232  and  _233
REMARK   95  A    between atoms: _236  and  _238
REMARK   96  A    between atoms: _238  and  _239
REMARK   97  A    between atoms: _238  and  _241
REMARK   98  A    between atoms: _241  and  _242
REMARK   99  A    between atoms: _245  and  _247
REMARK  100  A    between atoms: _247  and  _248
REMARK  101  A    between atoms: _250  and  _252
REMARK  102  A    between atoms: _252  and  _253
REMARK  103  A    between atoms: _252  and  _255
REMARK  104  A    between atoms: _255  and  _256
REMARK  105  A    between atoms: _256  and  _257
REMARK  106  A    between atoms: _257  and  _258
REMARK  107  A    between atoms: _267  and  _269
REMARK  108  A    between atoms: _269  and  _270
REMARK  109  A    between atoms: _269  and  _272
REMARK  110  A    between atoms: _272  and  _273
REMARK  111  A    between atoms: _278  and  _280
REMARK  112  A    between atoms: _280  and  _281
REMARK  113  A    between atoms: _280  and  _283
REMARK  114  A    between atoms: _283  and  _284
REMARK  115  A    between atoms: _284  and  _285
REMARK  116  A    between atoms: _285  and  _286
REMARK  117  A    between atoms: _295  and  _297
REMARK  118  A    between atoms: _297  and  _298
REMARK  119  A    between atoms: _297  and  _300
REMARK  120  A    between atoms: _300  and  _301
REMARK  121  A    between atoms: _304  and  _306
REMARK  122  A    between atoms: _306  and  _307
REMARK  123  A    between atoms: _306  and  _309
REMARK  124  A    between atoms: _309  and  _310
REMARK  125  A    between atoms: _313  and  _315
REMARK  126  A    between atoms: _315  and  _316
REMARK  127  A    between atoms: _315  and  _318
REMARK  128  A    between atoms: _318  and  _319
REMARK  129  A    between atoms: _322  and  _324
REMARK  130  A    between atoms: _324  and  _325
REMARK  131  A    between atoms: _324  and  _327
REMARK  132  A    between atoms: _327  and  _328
REMARK  133  A    between atoms: _331  and  _333
REMARK  134  A    between atoms: _333  and  _334
REMARK  135  A    between atoms: _336  and  _338
REMARK  136  A    between atoms: _338  and  _339
REMARK  137  A    between atoms: _342  and  _344
REMARK  138  A    between atoms: _344  and  _345
REMARK  139  A    between atoms: _344  and  _347
REMARK  140  A    between atoms: _347  and  _348
REMARK  141  A    between atoms: _351  and  _353
REMARK  142  A    between atoms: _353  and  _354
REMARK  143  A    between atoms: _353  and  _356
REMARK  144  A    between atoms: _356  and  _357
REMARK  145  A    between atoms: _360  and  _362
REMARK  146  A    between atoms: _362  and  _363
REMARK  147  A    between atoms: _362  and  _365
REMARK  148  A    between atoms: _365  and  _366
REMARK  149  A    between atoms: _369  and  _371
REMARK  150  A    between atoms: _371  and  _372
REMARK  151  A    between atoms: _371  and  _374
REMARK  152  A    between atoms: _377  and  _379
REMARK  153  A    between atoms: _379  and  _380
REMARK  154  A    between atoms: _379  and  _382
REMARK  155  A    between atoms: _382  and  _383
REMARK  156  A    between atoms: _383  and  _384
REMARK  157  A    between atoms: _384  and  _385
REMARK  158  A    between atoms: _385  and  _386
REMARK  159  A    between atoms: _390  and  _392
REMARK  160  A    between atoms: _392  and  _393
REMARK  161  A    between atoms: _392  and  _395
REMARK  162  A    between atoms: _395  and  _396
REMARK  163  A    between atoms: _396  and  _397
REMARK  164  A    between atoms: _399  and  _401
REMARK  165  A    between atoms: _401  and  _402
REMARK  166  A    between atoms: _401  and  _404
REMARK  167  A    between atoms: _404  and  _405
REMARK  168  A    between atoms: _408  and  _410
REMARK  169  A    between atoms: _410  and  _411
REMARK  170  A    between atoms: _413  and  _415
REMARK  171  A    between atoms: _415  and  _416
REMARK  172  A    between atoms: _418  and  _420
REMARK  173  A    between atoms: _420  and  _421
REMARK  174  A    between atoms: _420  and  _423
REMARK  175  A    between atoms: _423  and  _424
REMARK  176  A    between atoms: _427  and  _429
REMARK  177  A    between atoms: _429  and  _430
REMARK  178  A    between atoms: _432  and  _434
REMARK  179  A    between atoms: _434  and  _435
REMARK  180  A    between atoms: _437  and  _439
REMARK  181  A    between atoms: _439  and  _440
REMARK  182  A    between atoms: _439  and  _442
REMARK  183  A    between atoms: _442  and  _443
REMARK  184  A    between atoms: _449  and  _451
REMARK  185  A    between atoms: _451  and  _452
REMARK  186  A    between atoms: _451  and  _454
REMARK  187  A    between atoms: _454  and  _455
REMARK  188  A    between atoms: _458  and  _460
REMARK  189  A    between atoms: _460  and  _461
REMARK  190  A    between atoms: _460  and  _463
REMARK  191  A    between atoms: _466  and  _468
REMARK  192  A    between atoms: _468  and  _469
REMARK  193  A    between atoms: _468  and  _471
REMARK  194  A    between atoms: _471  and  _472
REMARK  195  A    between atoms: _476  and  _477
REMARK  196  A    between atoms: _482  and  _484
REMARK  197  A    between atoms: _484  and  _485
REMARK  198  A    between atoms: _484  and  _487
REMARK  199  A    between atoms: _487  and  _488
REMARK  200  A    between atoms: _492  and  _493
REMARK  201  A    between atoms: _498  and  _500
REMARK  202  A    between atoms: _500  and  _501
REMARK  203  A    between atoms: _500  and  _503
REMARK  204  A    between atoms: _506  and  _508
REMARK  205  A    between atoms: _508  and  _509
REMARK  206  A    between atoms: _508  and  _511
REMARK  207  A    between atoms: _511  and  _512
REMARK  208  A    between atoms: _517  and  _519
REMARK  209  A    between atoms: _519  and  _520
REMARK  210  A    between atoms: _519  and  _522
REMARK  211  A    between atoms: _522  and  _523
REMARK  212  A    between atoms: _526  and  _528
REMARK  213  A    between atoms: _528  and  _529
REMARK  214  A    between atoms: _528  and  _531
REMARK  215  A    between atoms: _531  and  _532
REMARK  216  A    between atoms: _535  and  _537
REMARK  217  A    between atoms: _537  and  _538
REMARK  218  A    between atoms: _540  and  _542
REMARK  219  A    between atoms: _542  and  _543
REMARK  220  A    between atoms: _542  and  _545
REMARK  221  A    between atoms: _545  and  _546
REMARK  222  A    between atoms: _546  and  _547
REMARK  223  A    between atoms: _547  and  _548
REMARK  224  A    between atoms: _557  and  _559
REMARK  225  A    between atoms: _559  and  _560
REMARK  226  A    between atoms: _559  and  _562
REMARK  227  A    between atoms: _562  and  _563
REMARK                            x       y       z     vdW  Elec       q    Type
REMARK                         _______ _______ _______ _____ _____    ______ ____
ROOT
ATOM      1  O   HOH     1      30.518  21.492  10.613  0.00  0.00    +0.000 OA
ENDROOT
TORSDOF 0
REMARK  Name = ../refined-set-2016/4djo/4djo_pocket.pdb
REMARK  227 active torsions:
REMARK  status: ('A' for Active; 'I' for Inactive)
REMARK    1  A    between atoms: _1  and  _3
REMARK    2  A    between atoms: _3  and  _4
REMARK    3  A    between atoms: _3  and  _6
REMARK    4  A    between atoms: _6  and  _7
REMARK    5  A    between atoms: _7  and  _8
REMARK    6  A    between atoms: _8  and  _9
REMARK    7  A    between atoms: _18  and  _20
REMARK    8  A    between atoms: _20  and  _21
REMARK    9  A    between atoms: _20  and  _23
REMARK   10  A    between atoms: _23  and  _24
REMARK   11  A    between atoms: _27  and  _29
REMARK   12  A    between atoms: _29  and  _30
REMARK   13  A    between atoms: _29  and  _32
REMARK   14  A    between atoms: _32  and  _33
REMARK   15  A    between atoms: _36  and  _38
REMARK   16  A    between atoms: _38  and  _39
REMARK   17  A    between atoms: _38  and  _41
REMARK   18  A    between atoms: _41  and  _42
REMARK   19  A    between atoms: _45  and  _47
REMARK   20  A    between atoms: _47  and  _48
REMARK   21  A    between atoms: _47  and  _50
REMARK   22  A    between atoms: _50  and  _51
REMARK   23  A    between atoms: _54  and  _56
REMARK   24  A    between atoms: _56  and  _57
REMARK   25  A    between atoms: _59  and  _61
REMARK   26  A    between atoms: _61  and  _62
REMARK   27  A    between atoms: _65  and  _67
REMARK   28  A    between atoms: _67  and  _68
REMARK   29  A    between atoms: _67  and  _70
REMARK   30  A    between atoms: _70  and  _71
REMARK   31  A    between atoms: _74  and  _76
REMARK   32  A    between atoms: _76  and  _77
REMARK   33  A    between atoms: _76  and  _79
REMARK   34  A    between atoms: _79  and  _80
REMARK   35  A    between atoms: _83  and  _85
REMARK   36  A    between atoms: _85  and  _86
REMARK   37  A    between atoms: _85  and  _88
REMARK   38  A    between atoms: _88  and  _89
REMARK   39  A    between atoms: _92  and  _94
REMARK   40  A    between atoms: _94  and  _95
REMARK   41  A    between atoms: _94  and  _97
REMARK   42  A    between atoms: _100  and  _102
REMARK   43  A    between atoms: _102  and  _103
REMARK   44  A    between atoms: _102  and  _105
REMARK   45  A    between atoms: _105  and  _106
REMARK   46  A    between atoms: _106  and  _107
REMARK   47  A    between atoms: _109  and  _111
REMARK   48  A    between atoms: _111  and  _112
REMARK   49  A    between atoms: _111  and  _114
REMARK   50  A    between atoms: _114  and  _115
REMARK   51  A    between atoms: _118  and  _120
REMARK   52  A    between atoms: _120  and  _121
REMARK   53  A    between atoms: _123  and  _125
REMARK   54  A    between atoms: _125  and  _126
REMARK   55  A    between atoms: _128  and  _130
REMARK   56  A    between atoms: _130  and  _131
REMARK   57  A    between atoms: _130  and  _133
REMARK   58  A    between atoms: _133  and  _134
REMARK   59  A    between atoms: _137  and  _139
REMARK   60  A    between atoms: _139  and  _140
REMARK   61  A    between atoms: _142  and  _144
REMARK   62  A    between atoms: _144  and  _145
REMARK   63  A    between atoms: _147  and  _149
REMARK   64  A    between atoms: _149  and  _150
REMARK   65  A    between atoms: _149  and  _152
REMARK   66  A    between atoms: _152  and  _153
REMARK   67  A    between atoms: _159  and  _161
REMARK   68  A    between atoms: _161  and  _162
REMARK   69  A    between atoms: _161  and  _164
REMARK   70  A    between atoms: _164  and  _165
REMARK   71  A    between atoms: _168  and  _170
REMARK   72  A    between atoms: _170  and  _171
REMARK   73  A    between atoms: _170  and  _173
REMARK   74  A    between atoms: _176  and  _178
REMARK   75  A    between atoms: _178  and  _179
REMARK   76  A    between atoms: _178  and  _181
REMARK   77  A    between atoms: _181  and  _182
REMARK   78  A    between atoms: _186  and  _187
REMARK   79  A    between atoms: _192  and  _194
REMARK   80  A    between atoms: _194  and  _195
REMARK   81  A    between atoms: _194  and  _197
REMARK   82  A    between atoms: _197  and  _198
REMARK   83  A    between atoms: _202  and  _203
REMARK   84  A    between atoms: _208  and  _210
REMARK   85  A    between atoms: _210  and  _211
REMARK   86  A    between atoms: _210  and  _213
REMARK   87  A    between atoms: _216  and  _218
REMARK   88  A    between atoms: _218  and  _219
REMARK   89  A    between atoms: _218  and  _221
REMARK   90  A    between atoms: _221  and  _222
REMARK   91  A    between atoms: _227  and  _229
REMARK   92  A    between atoms: _229  and  _230
REMARK   93  A    between atoms: _229  and  _232
REMARK   94  A    between atoms: _232  and  _233
REMARK   95  A    between atoms: _236  and  _238
REMARK   96  A    between atoms: _238  and  _239
REMARK   97  A    between atoms: _238  and  _241
REMARK   98  A    between atoms: _241  and  _242
REMARK   99  A    between atoms: _245  and  _247
REMARK  100  A    between atoms: _247  and  _248
REMARK  101  A    between atoms: _250  and  _252
REMARK  102  A    between atoms: _252  and  _253
REMARK  103  A    between atoms: _252  and  _255
REMARK  104  A    between atoms: _255  and  _256
REMARK  105  A    between atoms: _256  and  _257
REMARK  106  A    between atoms: _257  and  _258
REMARK  107  A    between atoms: _267  and  _269
REMARK  108  A    between atoms: _269  and  _270
REMARK  109  A    between atoms: _269  and  _272
REMARK  110  A    between atoms: _272  and  _273
REMARK  111  A    between atoms: _278  and  _280
REMARK  112  A    between atoms: _280  and  _281
REMARK  113  A    between atoms: _280  and  _283
REMARK  114  A    between atoms: _283  and  _284
REMARK  115  A    between atoms: _284  and  _285
REMARK  116  A    between atoms: _285  and  _286
REMARK  117  A    between atoms: _295  and  _297
REMARK  118  A    between atoms: _297  and  _298
REMARK  119  A    between atoms: _297  and  _300
REMARK  120  A    between atoms: _300  and  _301
REMARK  121  A    between atoms: _304  and  _306
REMARK  122  A    between atoms: _306  and  _307
REMARK  123  A    between atoms: _306  and  _309
REMARK  124  A    between atoms: _309  and  _310
REMARK  125  A    between atoms: _313  and  _315
REMARK  126  A    between atoms: _315  and  _316
REMARK  127  A    between atoms: _315  and  _318
REMARK  128  A    between atoms: _318  and  _319
REMARK  129  A    between atoms: _322  and  _324
REMARK  130  A    between atoms: _324  and  _325
REMARK  131  A    between atoms: _324  and  _327
REMARK  132  A    between atoms: _327  and  _328
REMARK  133  A    between atoms: _331  and  _333
REMARK  134  A    between atoms: _333  and  _334
REMARK  135  A    between atoms: _336  and  _338
REMARK  136  A    between atoms: _338  and  _339
REMARK  137  A    between atoms: _342  and  _344
REMARK  138  A    between atoms: _344  and  _345
REMARK  139  A    between atoms: _344  and  _347
REMARK  140  A    between atoms: _347  and  _348
REMARK  141  A    between atoms: _351  and  _353
REMARK  142  A    between atoms: _353  and  _354
REMARK  143  A    between atoms: _353  and  _356
REMARK  144  A    between atoms: _356  and  _357
REMARK  145  A    between atoms: _360  and  _362
REMARK  146  A    between atoms: _362  and  _363
REMARK  147  A    between atoms: _362  and  _365
REMARK  148  A    between atoms: _365  and  _366
REMARK  149  A    between atoms: _369  and  _371
REMARK  150  A    between atoms: _371  and  _372
REMARK  151  A    between atoms: _371  and  _374
REMARK  152  A    between atoms: _377  and  _379
REMARK  153  A    between atoms: _379  and  _380
REMARK  154  A    between atoms: _379  and  _382
REMARK  155  A    between atoms: _382  and  _383
REMARK  156  A    between atoms: _383  and  _384
REMARK  157  A    between atoms: _384  and  _385
REMARK  158  A    between atoms: _385  and  _386
REMARK  159  A    between atoms: _390  and  _392
REMARK  160  A    between atoms: _392  and  _393
REMARK  161  A    between atoms: _392  and  _395
REMARK  162  A    between atoms: _395  and  _396
REMARK  163  A    between atoms: _396  and  _397
REMARK  164  A    between atoms: _399  and  _401
REMARK  165  A    between atoms: _401  and  _402
REMARK  166  A    between atoms: _401  and  _404
REMARK  167  A    between atoms: _404  and  _405
REMARK  168  A    between atoms: _408  and  _410
REMARK  169  A    between atoms: _410  and  _411
REMARK  170  A    between atoms: _413  and  _415
REMARK  171  A    between atoms: _415  and  _416
REMARK  172  A    between atoms: _418  and  _420
REMARK  173  A    between atoms: _420  and  _421
REMARK  174  A    between atoms: _420  and  _423
REMARK  175  A    between atoms: _423  and  _424
REMARK  176  A    between atoms: _427  and  _429
REMARK  177  A    between atoms: _429  and  _430
REMARK  178  A    between atoms: _432  and  _434
REMARK  179  A    between atoms: _434  and  _435
REMARK  180  A    between atoms: _437  and  _439
REMARK  181  A    between atoms: _439  and  _440
REMARK  182  A    between atoms: _439  and  _442
REMARK  183  A    between atoms: _442  and  _443
REMARK  184  A    between atoms: _449  and  _451
REMARK  185  A    between atoms: _451  and  _452
REMARK  186  A    between atoms: _451  and  _454
REMARK  187  A    between atoms: _454  and  _455
REMARK  188  A    between atoms: _458  and  _460
REMARK  189  A    between atoms: _460  and  _461
REMARK  190  A    between atoms: _460  and  _463
REMARK  191  A    between atoms: _466  and  _468
REMARK  192  A    between atoms: _468  and  _469
REMARK  193  A    between atoms: _468  and  _471
REMARK  194  A    between atoms: _471  and  _472
REMARK  195  A    between atoms: _476  and  _477
REMARK  196  A    between atoms: _482  and  _484
REMARK  197  A    between atoms: _484  and  _485
REMARK  198  A    between atoms: _484  and  _487
REMARK  199  A    between atoms: _487  and  _488
REMARK  200  A    between atoms: _492  and  _493
REMARK  201  A    between atoms: _498  and  _500
REMARK  202  A    between atoms: _500  and  _501
REMARK  203  A    between atoms: _500  and  _503
REMARK  204  A    between atoms: _506  and  _508
REMARK  205  A    between atoms: _508  and  _509
REMARK  206  A    between atoms: _508  and  _511
REMARK  207  A    between atoms: _511  and  _512
REMARK  208  A    between atoms: _517  and  _519
REMARK  209  A    between atoms: _519  and  _520
REMARK  210  A    between atoms: _519  and  _522
REMARK  211  A    between atoms: _522  and  _523
REMARK  212  A    between atoms: _526  and  _528
REMARK  213  A    between atoms: _528  and  _529
REMARK  214  A    between atoms: _528  and  _531
REMARK  215  A    between atoms: _531  and  _532
REMARK  216  A    between atoms: _535  and  _537
REMARK  217  A    between atoms: _537  and  _538
REMARK  218  A    between atoms: _540  and  _542
REMARK  219  A    between atoms: _542  and  _543
REMARK  220  A    between atoms: _542  and  _545
REMARK  221  A    between atoms: _545  and  _546
REMARK  222  A    between atoms: _546  and  _547
REMARK  223  A    between atoms: _547  and  _548
REMARK  224  A    between atoms: _557  and  _559
REMARK  225  A    between atoms: _559  and  _560
REMARK  226  A    between atoms: _559  and  _562
REMARK  227  A    between atoms: _562  and  _563
REMARK                            x       y       z     vdW  Elec       q    Type
REMARK                         _______ _______ _______ _____ _____    ______ ____
ROOT
ATOM      1  O   HOH     1      14.695  30.291   4.446  0.00  0.00    +0.000 OA
ENDROOT
TORSDOF 0
REMARK  Name = ../refined-set-2016/4djo/4djo_pocket.pdb
REMARK  227 active torsions:
REMARK  status: ('A' for Active; 'I' for Inactive)
REMARK    1  A    between atoms: _1  and  _3
REMARK    2  A    between atoms: _3  and  _4
REMARK    3  A    between atoms: _3  and  _6
REMARK    4  A    between atoms: _6  and  _7
REMARK    5  A    between atoms: _7  and  _8
REMARK    6  A    between atoms: _8  and  _9
REMARK    7  A    between atoms: _18  and  _20
REMARK    8  A    between atoms: _20  and  _21
REMARK    9  A    between atoms: _20  and  _23
REMARK   10  A    between atoms: _23  and  _24
REMARK   11  A    between atoms: _27  and  _29
REMARK   12  A    between atoms: _29  and  _30
REMARK   13  A    between atoms: _29  and  _32
REMARK   14  A    between atoms: _32  and  _33
REMARK   15  A    between atoms: _36  and  _38
REMARK   16  A    between atoms: _38  and  _39
REMARK   17  A    between atoms: _38  and  _41
REMARK   18  A    between atoms: _41  and  _42
REMARK   19  A    between atoms: _45  and  _47
REMARK   20  A    between atoms: _47  and  _48
REMARK   21  A    between atoms: _47  and  _50
REMARK   22  A    between atoms: _50  and  _51
REMARK   23  A    between atoms: _54  and  _56
REMARK   24  A    between atoms: _56  and  _57
REMARK   25  A    between atoms: _59  and  _61
REMARK   26  A    between atoms: _61  and  _62
REMARK   27  A    between atoms: _65  and  _67
REMARK   28  A    between atoms: _67  and  _68
REMARK   29  A    between atoms: _67  and  _70
REMARK   30  A    between atoms: _70  and  _71
REMARK   31  A    between atoms: _74  and  _76
REMARK   32  A    between atoms: _76  and  _77
REMARK   33  A    between atoms: _76  and  _79
REMARK   34  A    between atoms: _79  and  _80
REMARK   35  A    between atoms: _83  and  _85
REMARK   36  A    between atoms: _85  and  _86
REMARK   37  A    between atoms: _85  and  _88
REMARK   38  A    between atoms: _88  and  _89
REMARK   39  A    between atoms: _92  and  _94
REMARK   40  A    between atoms: _94  and  _95
REMARK   41  A    between atoms: _94  and  _97
REMARK   42  A    between atoms: _100  and  _102
REMARK   43  A    between atoms: _102  and  _103
REMARK   44  A    between atoms: _102  and  _105
REMARK   45  A    between atoms: _105  and  _106
REMARK   46  A    between atoms: _106  and  _107
REMARK   47  A    between atoms: _109  and  _111
REMARK   48  A    between atoms: _111  and  _112
REMARK   49  A    between atoms: _111  and  _114
REMARK   50  A    between atoms: _114  and  _115
REMARK   51  A    between atoms: _118  and  _120
REMARK   52  A    between atoms: _120  and  _121
REMARK   53  A    between atoms: _123  and  _125
REMARK   54  A    between atoms: _125  and  _126
REMARK   55  A    between atoms: _128  and  _130
REMARK   56  A    between atoms: _130  and  _131
REMARK   57  A    between atoms: _130  and  _133
REMARK   58  A    between atoms: _133  and  _134
REMARK   59  A    between atoms: _137  and  _139
REMARK   60  A    between atoms: _139  and  _140
REMARK   61  A    between atoms: _142  and  _144
REMARK   62  A    between atoms: _144  and  _145
REMARK   63  A    between atoms: _147  and  _149
REMARK   64  A    between atoms: _149  and  _150
REMARK   65  A    between atoms: _149  and  _152
REMARK   66  A    between atoms: _152  and  _153
REMARK   67  A    between atoms: _159  and  _161
REMARK   68  A    between atoms: _161  and  _162
REMARK   69  A    between atoms: _161  and  _164
REMARK   70  A    between atoms: _164  and  _165
REMARK   71  A    between atoms: _168  and  _170
REMARK   72  A    between atoms: _170  and  _171
REMARK   73  A    between atoms: _170  and  _173
REMARK   74  A    between atoms: _176  and  _178
REMARK   75  A    between atoms: _178  and  _179
REMARK   76  A    between atoms: _178  and  _181
REMARK   77  A    between atoms: _181  and  _182
REMARK   78  A    between atoms: _186  and  _187
REMARK   79  A    between atoms: _192  and  _194
REMARK   80  A    between atoms: _194  and  _195
REMARK   81  A    between atoms: _194  and  _197
REMARK   82  A    between atoms: _197  and  _198
REMARK   83  A    between atoms: _202  and  _203
REMARK   84  A    between atoms: _208  and  _210
REMARK   85  A    between atoms: _210  and  _211
REMARK   86  A    between atoms: _210  and  _213
REMARK   87  A    between atoms: _216  and  _218
REMARK   88  A    between atoms: _218  and  _219
REMARK   89  A    between atoms: _218  and  _221
REMARK   90  A    between atoms: _221  and  _222
REMARK   91  A    between atoms: _227  and  _229
REMARK   92  A    between atoms: _229  and  _230
REMARK   93  A    between atoms: _229  and  _232
REMARK   94  A    between atoms: _232  and  _233
REMARK   95  A    between atoms: _236  and  _238
REMARK   96  A    between atoms: _238  and  _239
REMARK   97  A    between atoms: _238  and  _241
REMARK   98  A    between atoms: _241  and  _242
REMARK   99  A    between atoms: _245  and  _247
REMARK  100  A    between atoms: _247  and  _248
REMARK  101  A    between atoms: _250  and  _252
REMARK  102  A    between atoms: _252  and  _253
REMARK  103  A    between atoms: _252  and  _255
REMARK  104  A    between atoms: _255  and  _256
REMARK  105  A    between atoms: _256  and  _257
REMARK  106  A    between atoms: _257  and  _258
REMARK  107  A    between atoms: _267  and  _269
REMARK  108  A    between atoms: _269  and  _270
REMARK  109  A    between atoms: _269  and  _272
REMARK  110  A    between atoms: _272  and  _273
REMARK  111  A    between atoms: _278  and  _280
REMARK  112  A    between atoms: _280  and  _281
REMARK  113  A    between atoms: _280  and  _283
REMARK  114  A    between atoms: _283  and  _284
REMARK  115  A    between atoms: _284  and  _285
REMARK  116  A    between atoms: _285  and  _286
REMARK  117  A    between atoms: _295  and  _297
REMARK  118  A    between atoms: _297  and  _298
REMARK  119  A    between atoms: _297  and  _300
REMARK  120  A    between atoms: _300  and  _301
REMARK  121  A    between atoms: _304  and  _306
REMARK  122  A    between atoms: _306  and  _307
REMARK  123  A    between atoms: _306  and  _309
REMARK  124  A    between atoms: _309  and  _310
REMARK  125  A    between atoms: _313  and  _315
REMARK  126  A    between atoms: _315  and  _316
REMARK  127  A    between atoms: _315  and  _318
REMARK  128  A    between atoms: _318  and  _319
REMARK  129  A    between atoms: _322  and  _324
REMARK  130  A    between atoms: _324  and  _325
REMARK  131  A    between atoms: _324  and  _327
REMARK  132  A    between atoms: _327  and  _328
REMARK  133  A    between atoms: _331  and  _333
REMARK  134  A    between atoms: _333  and  _334
REMARK  135  A    between atoms: _336  and  _338
REMARK  136  A    between atoms: _338  and  _339
REMARK  137  A    between atoms: _342  and  _344
REMARK  138  A    between atoms: _344  and  _345
REMARK  139  A    between atoms: _344  and  _347
REMARK  140  A    between atoms: _347  and  _348
REMARK  141  A    between atoms: _351  and  _353
REMARK  142  A    between atoms: _353  and  _354
REMARK  143  A    between atoms: _353  and  _356
REMARK  144  A    between atoms: _356  and  _357
REMARK  145  A    between atoms: _360  and  _362
REMARK  146  A    between atoms: _362  and  _363
REMARK  147  A    between atoms: _362  and  _365
REMARK  148  A    between atoms: _365  and  _366
REMARK  149  A    between atoms: _369  and  _371
REMARK  150  A    between atoms: _371  and  _372
REMARK  151  A    between atoms: _371  and  _374
REMARK  152  A    between atoms: _377  and  _379
REMARK  153  A    between atoms: _379  and  _380
REMARK  154  A    between atoms: _379  and  _382
REMARK  155  A    between atoms: _382  and  _383
REMARK  156  A    between atoms: _383  and  _384
REMARK  157  A    between atoms: _384  and  _385
REMARK  158  A    between atoms: _385  and  _386
REMARK  159  A    between atoms: _390  and  _392
REMARK  160  A    between atoms: _392  and  _393
REMARK  161  A    between atoms: _392  and  _395
REMARK  162  A    between atoms: _395  and  _396
REMARK  163  A    between atoms: _396  and  _397
REMARK  164  A    between atoms: _399  and  _401
REMARK  165  A    between atoms: _401  and  _402
REMARK  166  A    between atoms: _401  and  _404
REMARK  167  A    between atoms: _404  and  _405
REMARK  168  A    between atoms: _408  and  _410
REMARK  169  A    between atoms: _410  and  _411
REMARK  170  A    between atoms: _413  and  _415
REMARK  171  A    between atoms: _415  and  _416
REMARK  172  A    between atoms: _418  and  _420
REMARK  173  A    between atoms: _420  and  _421
REMARK  174  A    between atoms: _420  and  _423
REMARK  175  A    between atoms: _423  and  _424
REMARK  176  A    between atoms: _427  and  _429
REMARK  177  A    between atoms: _429  and  _430
REMARK  178  A    between atoms: _432  and  _434
REMARK  179  A    between atoms: _434  and  _435
REMARK  180  A    between atoms: _437  and  _439
REMARK  181  A    between atoms: _439  and  _440
REMARK  182  A    between atoms: _439  and  _442
REMARK  183  A    between atoms: _442  and  _443
REMARK  184  A    between atoms: _449  and  _451
REMARK  185  A    between atoms: _451  and  _452
REMARK  186  A    between atoms: _451  and  _454
REMARK  187  A    between atoms: _454  and  _455
REMARK  188  A    between atoms: _458  and  _460
REMARK  189  A    between atoms: _460  and  _461
REMARK  190  A    between atoms: _460  and  _463
REMARK  191  A    between atoms: _466  and  _468
REMARK  192  A    between atoms: _468  and  _469
REMARK  193  A    between atoms: _468  and  _471
REMARK  194  A    between atoms: _471  and  _472
REMARK  195  A    between atoms: _476  and  _477
REMARK  196  A    between atoms: _482  and  _484
REMARK  197  A    between atoms: _484  and  _485
REMARK  198  A    between atoms: _484  and  _487
REMARK  199  A    between atoms: _487  and  _488
REMARK  200  A    between atoms: _492  and  _493
REMARK  201  A    between atoms: _498  and  _500
REMARK  202  A    between atoms: _500  and  _501
REMARK  203  A    between atoms: _500  and  _503
REMARK  204  A    between atoms: _506  and  _508
REMARK  205  A    between atoms: _508  and  _509
REMARK  206  A    between atoms: _508  and  _511
REMARK  207  A    between atoms: _511  and  _512
REMARK  208  A    between atoms: _517  and  _519
REMARK  209  A    between atoms: _519  and  _520
REMARK  210  A    between atoms: _519  and  _522
REMARK  211  A    between atoms: _522  and  _523
REMARK  212  A    between atoms: _526  and  _528
REMARK  213  A    between atoms: _528  and  _529
REMARK  214  A    between atoms: _528  and  _531
REMARK  215  A    between atoms: _531  and  _532
REMARK  216  A    between atoms: _535  and  _537
REMARK  217  A    between atoms: _537  and  _538
REMARK  218  A    between atoms: _540  and  _542
REMARK  219  A    between atoms: _542  and  _543
REMARK  220  A    between atoms: _542  and  _545
REMARK  221  A    between atoms: _545  and  _546
REMARK  222  A    between atoms: _546  and  _547
REMARK  223  A    between atoms: _547  and  _548
REMARK  224  A    between atoms: _557  and  _559
REMARK  225  A    between atoms: _559  and  _560
REMARK  226  A    between atoms: _559  and  _562
REMARK  227  A    between atoms: _562  and  _563
REMARK                            x       y       z     vdW  Elec       q    Type
REMARK                         _______ _______ _______ _____ _____    ______ ____
ROOT
ATOM      1  O   HOH     1      20.310  32.373  23.477  0.00  0.00    +0.000 OA
ENDROOT
TORSDOF 0
REMARK  Name = ../refined-set-2016/4djo/4djo_pocket.pdb
REMARK  227 active torsions:
REMARK  status: ('A' for Active; 'I' for Inactive)
REMARK    1  A    between atoms: _1  and  _3
REMARK    2  A    between atoms: _3  and  _4
REMARK    3  A    between atoms: _3  and  _6
REMARK    4  A    between atoms: _6  and  _7
REMARK    5  A    between atoms: _7  and  _8
REMARK    6  A    between atoms: _8  and  _9
REMARK    7  A    between atoms: _18  and  _20
REMARK    8  A    between atoms: _20  and  _21
REMARK    9  A    between atoms: _20  and  _23
REMARK   10  A    between atoms: _23  and  _24
REMARK   11  A    between atoms: _27  and  _29
REMARK   12  A    between atoms: _29  and  _30
REMARK   13  A    between atoms: _29  and  _32
REMARK   14  A    between atoms: _32  and  _33
REMARK   15  A    between atoms: _36  and  _38
REMARK   16  A    between atoms: _38  and  _39
REMARK   17  A    between atoms: _38  and  _41
REMARK   18  A    between atoms: _41  and  _42
REMARK   19  A    between atoms: _45  and  _47
REMARK   20  A    between atoms: _47  and  _48
REMARK   21  A    between atoms: _47  and  _50
REMARK   22  A    between atoms: _50  and  _51
REMARK   23  A    between atoms: _54  and  _56
REMARK   24  A    between atoms: _56  and  _57
REMARK   25  A    between atoms: _59  and  _61
REMARK   26  A    between atoms: _61  and  _62
REMARK   27  A    between atoms: _65  and  _67
REMARK   28  A    between atoms: _67  and  _68
REMARK   29  A    between atoms: _67  and  _70
REMARK   30  A    between atoms: _70  and  _71
REMARK   31  A    between atoms: _74  and  _76
REMARK   32  A    between atoms: _76  and  _77
REMARK   33  A    between atoms: _76  and  _79
REMARK   34  A    between atoms: _79  and  _80
REMARK   35  A    between atoms: _83  and  _85
REMARK   36  A    between atoms: _85  and  _86
REMARK   37  A    between atoms: _85  and  _88
REMARK   38  A    between atoms: _88  and  _89
REMARK   39  A    between atoms: _92  and  _94
REMARK   40  A    between atoms: _94  and  _95
REMARK   41  A    between atoms: _94  and  _97
REMARK   42  A    between atoms: _100  and  _102
REMARK   43  A    between atoms: _102  and  _103
REMARK   44  A    between atoms: _102  and  _105
REMARK   45  A    between atoms: _105  and  _106
REMARK   46  A    between atoms: _106  and  _107
REMARK   47  A    between atoms: _109  and  _111
REMARK   48  A    between atoms: _111  and  _112
REMARK   49  A    between atoms: _111  and  _114
REMARK   50  A    between atoms: _114  and  _115
REMARK   51  A    between atoms: _118  and  _120
REMARK   52  A    between atoms: _120  and  _121
REMARK   53  A    between atoms: _123  and  _125
REMARK   54  A    between atoms: _125  and  _126
REMARK   55  A    between atoms: _128  and  _130
REMARK   56  A    between atoms: _130  and  _131
REMARK   57  A    between atoms: _130  and  _133
REMARK   58  A    between atoms: _133  and  _134
REMARK   59  A    between atoms: _137  and  _139
REMARK   60  A    between atoms: _139  and  _140
REMARK   61  A    between atoms: _142  and  _144
REMARK   62  A    between atoms: _144  and  _145
REMARK   63  A    between atoms: _147  and  _149
REMARK   64  A    between atoms: _149  and  _150
REMARK   65  A    between atoms: _149  and  _152
REMARK   66  A    between atoms: _152  and  _153
REMARK   67  A    between atoms: _159  and  _161
REMARK   68  A    between atoms: _161  and  _162
REMARK   69  A    between atoms: _161  and  _164
REMARK   70  A    between atoms: _164  and  _165
REMARK   71  A    between atoms: _168  and  _170
REMARK   72  A    between atoms: _170  and  _171
REMARK   73  A    between atoms: _170  and  _173
REMARK   74  A    between atoms: _176  and  _178
REMARK   75  A    between atoms: _178  and  _179
REMARK   76  A    between atoms: _178  and  _181
REMARK   77  A    between atoms: _181  and  _182
REMARK   78  A    between atoms: _186  and  _187
REMARK   79  A    between atoms: _192  and  _194
REMARK   80  A    between atoms: _194  and  _195
REMARK   81  A    between atoms: _194  and  _197
REMARK   82  A    between atoms: _197  and  _198
REMARK   83  A    between atoms: _202  and  _203
REMARK   84  A    between atoms: _208  and  _210
REMARK   85  A    between atoms: _210  and  _211
REMARK   86  A    between atoms: _210  and  _213
REMARK   87  A    between atoms: _216  and  _218
REMARK   88  A    between atoms: _218  and  _219
REMARK   89  A    between atoms: _218  and  _221
REMARK   90  A    between atoms: _221  and  _222
REMARK   91  A    between atoms: _227  and  _229
REMARK   92  A    between atoms: _229  and  _230
REMARK   93  A    between atoms: _229  and  _232
REMARK   94  A    between atoms: _232  and  _233
REMARK   95  A    between atoms: _236  and  _238
REMARK   96  A    between atoms: _238  and  _239
REMARK   97  A    between atoms: _238  and  _241
REMARK   98  A    between atoms: _241  and  _242
REMARK   99  A    between atoms: _245  and  _247
REMARK  100  A    between atoms: _247  and  _248
REMARK  101  A    between atoms: _250  and  _252
REMARK  102  A    between atoms: _252  and  _253
REMARK  103  A    between atoms: _252  and  _255
REMARK  104  A    between atoms: _255  and  _256
REMARK  105  A    between atoms: _256  and  _257
REMARK  106  A    between atoms: _257  and  _258
REMARK  107  A    between atoms: _267  and  _269
REMARK  108  A    between atoms: _269  and  _270
REMARK  109  A    between atoms: _269  and  _272
REMARK  110  A    between atoms: _272  and  _273
REMARK  111  A    between atoms: _278  and  _280
REMARK  112  A    between atoms: _280  and  _281
REMARK  113  A    between atoms: _280  and  _283
REMARK  114  A    between atoms: _283  and  _284
REMARK  115  A    between atoms: _284  and  _285
REMARK  116  A    between atoms: _285  and  _286
REMARK  117  A    between atoms: _295  and  _297
REMARK  118  A    between atoms: _297  and  _298
REMARK  119  A    between atoms: _297  and  _300
REMARK  120  A    between atoms: _300  and  _301
REMARK  121  A    between atoms: _304  and  _306
REMARK  122  A    between atoms: _306  and  _307
REMARK  123  A    between atoms: _306  and  _309
REMARK  124  A    between atoms: _309  and  _310
REMARK  125  A    between atoms: _313  and  _315
REMARK  126  A    between atoms: _315  and  _316
REMARK  127  A    between atoms: _315  and  _318
REMARK  128  A    between atoms: _318  and  _319
REMARK  129  A    between atoms: _322  and  _324
REMARK  130  A    between atoms: _324  and  _325
REMARK  131  A    between atoms: _324  and  _327
REMARK  132  A    between atoms: _327  and  _328
REMARK  133  A    between atoms: _331  and  _333
REMARK  134  A    between atoms: _333  and  _334
REMARK  135  A    between atoms: _336  and  _338
REMARK  136  A    between atoms: _338  and  _339
REMARK  137  A    between atoms: _342  and  _344
REMARK  138  A    between atoms: _344  and  _345
REMARK  139  A    between atoms: _344  and  _347
REMARK  140  A    between atoms: _347  and  _348
REMARK  141  A    between atoms: _351  and  _353
REMARK  142  A    between atoms: _353  and  _354
REMARK  143  A    between atoms: _353  and  _356
REMARK  144  A    between atoms: _356  and  _357
REMARK  145  A    between atoms: _360  and  _362
REMARK  146  A    between atoms: _362  and  _363
REMARK  147  A    between atoms: _362  and  _365
REMARK  148  A    between atoms: _365  and  _366
REMARK  149  A    between atoms: _369  and  _371
REMARK  150  A    between atoms: _371  and  _372
REMARK  151  A    between atoms: _371  and  _374
REMARK  152  A    between atoms: _377  and  _379
REMARK  153  A    between atoms: _379  and  _380
REMARK  154  A    between atoms: _379  and  _382
REMARK  155  A    between atoms: _382  and  _383
REMARK  156  A    between atoms: _383  and  _384
REMARK  157  A    between atoms: _384  and  _385
REMARK  158  A    between atoms: _385  and  _386
REMARK  159  A    between atoms: _390  and  _392
REMARK  160  A    between atoms: _392  and  _393
REMARK  161  A    between atoms: _392  and  _395
REMARK  162  A    between atoms: _395  and  _396
REMARK  163  A    between atoms: _396  and  _397
REMARK  164  A    between atoms: _399  and  _401
REMARK  165  A    between atoms: _401  and  _402
REMARK  166  A    between atoms: _401  and  _404
REMARK  167  A    between atoms: _404  and  _405
REMARK  168  A    between atoms: _408  and  _410
REMARK  169  A    between atoms: _410  and  _411
REMARK  170  A    between atoms: _413  and  _415
REMARK  171  A    between atoms: _415  and  _416
REMARK  172  A    between atoms: _418  and  _420
REMARK  173  A    between atoms: _420  and  _421
REMARK  174  A    between atoms: _420  and  _423
REMARK  175  A    between atoms: _423  and  _424
REMARK  176  A    between atoms: _427  and  _429
REMARK  177  A    between atoms: _429  and  _430
REMARK  178  A    between atoms: _432  and  _434
REMARK  179  A    between atoms: _434  and  _435
REMARK  180  A    between atoms: _437  and  _439
REMARK  181  A    between atoms: _439  and  _440
REMARK  182  A    between atoms: _439  and  _442
REMARK  183  A    between atoms: _442  and  _443
REMARK  184  A    between atoms: _449  and  _451
REMARK  185  A    between atoms: _451  and  _452
REMARK  186  A    between atoms: _451  and  _454
REMARK  187  A    between atoms: _454  and  _455
REMARK  188  A    between atoms: _458  and  _460
REMARK  189  A    between atoms: _460  and  _461
REMARK  190  A    between atoms: _460  and  _463
REMARK  191  A    between atoms: _466  and  _468
REMARK  192  A    between atoms: _468  and  _469
REMARK  193  A    between atoms: _468  and  _471
REMARK  194  A    between atoms: _471  and  _472
REMARK  195  A    between atoms: _476  and  _477
REMARK  196  A    between atoms: _482  and  _484
REMARK  197  A    between atoms: _484  and  _485
REMARK  198  A    between atoms: _484  and  _487
REMARK  199  A    between atoms: _487  and  _488
REMARK  200  A    between atoms: _492  and  _493
REMARK  201  A    between atoms: _498  and  _500
REMARK  202  A    between atoms: _500  and  _501
REMARK  203  A    between atoms: _500  and  _503
REMARK  204  A    between atoms: _506  and  _508
REMARK  205  A    between atoms: _508  and  _509
REMARK  206  A    between atoms: _508  and  _511
REMARK  207  A    between atoms: _511  and  _512
REMARK  208  A    between atoms: _517  and  _519
REMARK  209  A    between atoms: _519  and  _520
REMARK  210  A    between atoms: _519  and  _522
REMARK  211  A    between atoms: _522  and  _523
REMARK  212  A    between atoms: _526  and  _528
REMARK  213  A    between atoms: _528  and  _529
REMARK  214  A    between atoms: _528  and  _531
REMARK  215  A    between atoms: _531  and  _532
REMARK  216  A    between atoms: _535  and  _537
REMARK  217  A    between atoms: _537  and  _538
REMARK  218  A    between atoms: _540  and  _542
REMARK  219  A    between atoms: _542  and  _543
REMARK  220  A    between atoms: _542  and  _545
REMARK  221  A    between atoms: _545  and  _546
REMARK  222  A    between atoms: _546  and  _547
REMARK  223  A    between atoms: _547  and  _548
REMARK  224  A    between atoms: _557  and  _559
REMARK  225  A    between atoms: _559  and  _560
REMARK  226  A    between atoms: _559  and  _562
REMARK  227  A    between atoms: _562  and  _563
REMARK                            x       y       z     vdW  Elec       q    Type
REMARK                         _______ _______ _______ _____ _____    ______ ____
ROOT
ATOM      1  O   HOH     1       9.221  34.665  21.326  0.00  0.00    +0.000 OA
ENDROOT
TORSDOF 0
REMARK  Name = ../refined-set-2016/4djo/4djo_pocket.pdb
REMARK  227 active torsions:
REMARK  status: ('A' for Active; 'I' for Inactive)
REMARK    1  A    between atoms: _1  and  _3
REMARK    2  A    between atoms: _3  and  _4
REMARK    3  A    between atoms: _3  and  _6
REMARK    4  A    between atoms: _6  and  _7
REMARK    5  A    between atoms: _7  and  _8
REMARK    6  A    between atoms: _8  and  _9
REMARK    7  A    between atoms: _18  and  _20
REMARK    8  A    between atoms: _20  and  _21
REMARK    9  A    between atoms: _20  and  _23
REMARK   10  A    between atoms: _23  and  _24
REMARK   11  A    between atoms: _27  and  _29
REMARK   12  A    between atoms: _29  and  _30
REMARK   13  A    between atoms: _29  and  _32
REMARK   14  A    between atoms: _32  and  _33
REMARK   15  A    between atoms: _36  and  _38
REMARK   16  A    between atoms: _38  and  _39
REMARK   17  A    between atoms: _38  and  _41
REMARK   18  A    between atoms: _41  and  _42
REMARK   19  A    between atoms: _45  and  _47
REMARK   20  A    between atoms: _47  and  _48
REMARK   21  A    between atoms: _47  and  _50
REMARK   22  A    between atoms: _50  and  _51
REMARK   23  A    between atoms: _54  and  _56
REMARK   24  A    between atoms: _56  and  _57
REMARK   25  A    between atoms: _59  and  _61
REMARK   26  A    between atoms: _61  and  _62
REMARK   27  A    between atoms: _65  and  _67
REMARK   28  A    between atoms: _67  and  _68
REMARK   29  A    between atoms: _67  and  _70
REMARK   30  A    between atoms: _70  and  _71
REMARK   31  A    between atoms: _74  and  _76
REMARK   32  A    between atoms: _76  and  _77
REMARK   33  A    between atoms: _76  and  _79
REMARK   34  A    between atoms: _79  and  _80
REMARK   35  A    between atoms: _83  and  _85
REMARK   36  A    between atoms: _85  and  _86
REMARK   37  A    between atoms: _85  and  _88
REMARK   38  A    between atoms: _88  and  _89
REMARK   39  A    between atoms: _92  and  _94
REMARK   40  A    between atoms: _94  and  _95
REMARK   41  A    between atoms: _94  and  _97
REMARK   42  A    between atoms: _100  and  _102
REMARK   43  A    between atoms: _102  and  _103
REMARK   44  A    between atoms: _102  and  _105
REMARK   45  A    between atoms: _105  and  _106
REMARK   46  A    between atoms: _106  and  _107
REMARK   47  A    between atoms: _109  and  _111
REMARK   48  A    between atoms: _111  and  _112
REMARK   49  A    between atoms: _111  and  _114
REMARK   50  A    between atoms: _114  and  _115
REMARK   51  A    between atoms: _118  and  _120
REMARK   52  A    between atoms: _120  and  _121
REMARK   53  A    between atoms: _123  and  _125
REMARK   54  A    between atoms: _125  and  _126
REMARK   55  A    between atoms: _128  and  _130
REMARK   56  A    between atoms: _130  and  _131
REMARK   57  A    between atoms: _130  and  _133
REMARK   58  A    between atoms: _133  and  _134
REMARK   59  A    between atoms: _137  and  _139
REMARK   60  A    between atoms: _139  and  _140
REMARK   61  A    between atoms: _142  and  _144
REMARK   62  A    between atoms: _144  and  _145
REMARK   63  A    between atoms: _147  and  _149
REMARK   64  A    between atoms: _149  and  _150
REMARK   65  A    between atoms: _149  and  _152
REMARK   66  A    between atoms: _152  and  _153
REMARK   67  A    between atoms: _159  and  _161
REMARK   68  A    between atoms: _161  and  _162
REMARK   69  A    between atoms: _161  and  _164
REMARK   70  A    between atoms: _164  and  _165
REMARK   71  A    between atoms: _168  and  _170
REMARK   72  A    between atoms: _170  and  _171
REMARK   73  A    between atoms: _170  and  _173
REMARK   74  A    between atoms: _176  and  _178
REMARK   75  A    between atoms: _178  and  _179
REMARK   76  A    between atoms: _178  and  _181
REMARK   77  A    between atoms: _181  and  _182
REMARK   78  A    between atoms: _186  and  _187
REMARK   79  A    between atoms: _192  and  _194
REMARK   80  A    between atoms: _194  and  _195
REMARK   81  A    between atoms: _194  and  _197
REMARK   82  A    between atoms: _197  and  _198
REMARK   83  A    between atoms: _202  and  _203
REMARK   84  A    between atoms: _208  and  _210
REMARK   85  A    between atoms: _210  and  _211
REMARK   86  A    between atoms: _210  and  _213
REMARK   87  A    between atoms: _216  and  _218
REMARK   88  A    between atoms: _218  and  _219
REMARK   89  A    between atoms: _218  and  _221
REMARK   90  A    between atoms: _221  and  _222
REMARK   91  A    between atoms: _227  and  _229
REMARK   92  A    between atoms: _229  and  _230
REMARK   93  A    between atoms: _229  and  _232
REMARK   94  A    between atoms: _232  and  _233
REMARK   95  A    between atoms: _236  and  _238
REMARK   96  A    between atoms: _238  and  _239
REMARK   97  A    between atoms: _238  and  _241
REMARK   98  A    between atoms: _241  and  _242
REMARK   99  A    between atoms: _245  and  _247
REMARK  100  A    between atoms: _247  and  _248
REMARK  101  A    between atoms: _250  and  _252
REMARK  102  A    between atoms: _252  and  _253
REMARK  103  A    between atoms: _252  and  _255
REMARK  104  A    between atoms: _255  and  _256
REMARK  105  A    between atoms: _256  and  _257
REMARK  106  A    between atoms: _257  and  _258
REMARK  107  A    between atoms: _267  and  _269
REMARK  108  A    between atoms: _269  and  _270
REMARK  109  A    between atoms: _269  and  _272
REMARK  110  A    between atoms: _272  and  _273
REMARK  111  A    between atoms: _278  and  _280
REMARK  112  A    between atoms: _280  and  _281
REMARK  113  A    between atoms: _280  and  _283
REMARK  114  A    between atoms: _283  and  _284
REMARK  115  A    between atoms: _284  and  _285
REMARK  116  A    between atoms: _285  and  _286
REMARK  117  A    between atoms: _295  and  _297
REMARK  118  A    between atoms: _297  and  _298
REMARK  119  A    between atoms: _297  and  _300
REMARK  120  A    between atoms: _300  and  _301
REMARK  121  A    between atoms: _304  and  _306
REMARK  122  A    between atoms: _306  and  _307
REMARK  123  A    between atoms: _306  and  _309
REMARK  124  A    between atoms: _309  and  _310
REMARK  125  A    between atoms: _313  and  _315
REMARK  126  A    between atoms: _315  and  _316
REMARK  127  A    between atoms: _315  and  _318
REMARK  128  A    between atoms: _318  and  _319
REMARK  129  A    between atoms: _322  and  _324
REMARK  130  A    between atoms: _324  and  _325
REMARK  131  A    between atoms: _324  and  _327
REMARK  132  A    between atoms: _327  and  _328
REMARK  133  A    between atoms: _331  and  _333
REMARK  134  A    between atoms: _333  and  _334
REMARK  135  A    between atoms: _336  and  _338
REMARK  136  A    between atoms: _338  and  _339
REMARK  137  A    between atoms: _342  and  _344
REMARK  138  A    between atoms: _344  and  _345
REMARK  139  A    between atoms: _344  and  _347
REMARK  140  A    between atoms: _347  and  _348
REMARK  141  A    between atoms: _351  and  _353
REMARK  142  A    between atoms: _353  and  _354
REMARK  143  A    between atoms: _353  and  _356
REMARK  144  A    between atoms: _356  and  _357
REMARK  145  A    between atoms: _360  and  _362
REMARK  146  A    between atoms: _362  and  _363
REMARK  147  A    between atoms: _362  and  _365
REMARK  148  A    between atoms: _365  and  _366
REMARK  149  A    between atoms: _369  and  _371
REMARK  150  A    between atoms: _371  and  _372
REMARK  151  A    between atoms: _371  and  _374
REMARK  152  A    between atoms: _377  and  _379
REMARK  153  A    between atoms: _379  and  _380
REMARK  154  A    between atoms: _379  and  _382
REMARK  155  A    between atoms: _382  and  _383
REMARK  156  A    between atoms: _383  and  _384
REMARK  157  A    between atoms: _384  and  _385
REMARK  158  A    between atoms: _385  and  _386
REMARK  159  A    between atoms: _390  and  _392
REMARK  160  A    between atoms: _392  and  _393
REMARK  161  A    between atoms: _392  and  _395
REMARK  162  A    between atoms: _395  and  _396
REMARK  163  A    between atoms: _396  and  _397
REMARK  164  A    between atoms: _399  and  _401
REMARK  165  A    between atoms: _401  and  _402
REMARK  166  A    between atoms: _401  and  _404
REMARK  167  A    between atoms: _404  and  _405
REMARK  168  A    between atoms: _408  and  _410
REMARK  169  A    between atoms: _410  and  _411
REMARK  170  A    between atoms: _413  and  _415
REMARK  171  A    between atoms: _415  and  _416
REMARK  172  A    between atoms: _418  and  _420
REMARK  173  A    between atoms: _420  and  _421
REMARK  174  A    between atoms: _420  and  _423
REMARK  175  A    between atoms: _423  and  _424
REMARK  176  A    between atoms: _427  and  _429
REMARK  177  A    between atoms: _429  and  _430
REMARK  178  A    between atoms: _432  and  _434
REMARK  179  A    between atoms: _434  and  _435
REMARK  180  A    between atoms: _437  and  _439
REMARK  181  A    between atoms: _439  and  _440
REMARK  182  A    between atoms: _439  and  _442
REMARK  183  A    between atoms: _442  and  _443
REMARK  184  A    between atoms: _449  and  _451
REMARK  185  A    between atoms: _451  and  _452
REMARK  186  A    between atoms: _451  and  _454
REMARK  187  A    between atoms: _454  and  _455
REMARK  188  A    between atoms: _458  and  _460
REMARK  189  A    between atoms: _460  and  _461
REMARK  190  A    between atoms: _460  and  _463
REMARK  191  A    between atoms: _466  and  _468
REMARK  192  A    between atoms: _468  and  _469
REMARK  193  A    between atoms: _468  and  _471
REMARK  194  A    between atoms: _471  and  _472
REMARK  195  A    between atoms: _476  and  _477
REMARK  196  A    between atoms: _482  and  _484
REMARK  197  A    between atoms: _484  and  _485
REMARK  198  A    between atoms: _484  and  _487
REMARK  199  A    between atoms: _487  and  _488
REMARK  200  A    between atoms: _492  and  _493
REMARK  201  A    between atoms: _498  and  _500
REMARK  202  A    between atoms: _500  and  _501
REMARK  203  A    between atoms: _500  and  _503
REMARK  204  A    between atoms: _506  and  _508
REMARK  205  A    between atoms: _508  and  _509
REMARK  206  A    between atoms: _508  and  _511
REMARK  207  A    between atoms: _511  and  _512
REMARK  208  A    between atoms: _517  and  _519
REMARK  209  A    between atoms: _519  and  _520
REMARK  210  A    between atoms: _519  and  _522
REMARK  211  A    between atoms: _522  and  _523
REMARK  212  A    between atoms: _526  and  _528
REMARK  213  A    between atoms: _528  and  _529
REMARK  214  A    between atoms: _528  and  _531
REMARK  215  A    between atoms: _531  and  _532
REMARK  216  A    between atoms: _535  and  _537
REMARK  217  A    between atoms: _537  and  _538
REMARK  218  A    between atoms: _540  and  _542
REMARK  219  A    between atoms: _542  and  _543
REMARK  220  A    between atoms: _542  and  _545
REMARK  221  A    between atoms: _545  and  _546
REMARK  222  A    between atoms: _546  and  _547
REMARK  223  A    between atoms: _547  and  _548
REMARK  224  A    between atoms: _557  and  _559
REMARK  225  A    between atoms: _559  and  _560
REMARK  226  A    between atoms: _559  and  _562
REMARK  227  A    between atoms: _562  and  _563
REMARK                            x       y       z     vdW  Elec       q    Type
REMARK                         _______ _______ _______ _____ _____    ______ ____
ROOT
ATOM      1  O   HOH     1      17.359  22.557  11.281  0.00  0.00    +0.000 OA
ENDROOT
TORSDOF 0
REMARK  Name = ../refined-set-2016/4djo/4djo_pocket.pdb
REMARK  227 active torsions:
REMARK  status: ('A' for Active; 'I' for Inactive)
REMARK    1  A    between atoms: _1  and  _3
REMARK    2  A    between atoms: _3  and  _4
REMARK    3  A    between atoms: _3  and  _6
REMARK    4  A    between atoms: _6  and  _7
REMARK    5  A    between atoms: _7  and  _8
REMARK    6  A    between atoms: _8  and  _9
REMARK    7  A    between atoms: _18  and  _20
REMARK    8  A    between atoms: _20  and  _21
REMARK    9  A    between atoms: _20  and  _23
REMARK   10  A    between atoms: _23  and  _24
REMARK   11  A    between atoms: _27  and  _29
REMARK   12  A    between atoms: _29  and  _30
REMARK   13  A    between atoms: _29  and  _32
REMARK   14  A    between atoms: _32  and  _33
REMARK   15  A    between atoms: _36  and  _38
REMARK   16  A    between atoms: _38  and  _39
REMARK   17  A    between atoms: _38  and  _41
REMARK   18  A    between atoms: _41  and  _42
REMARK   19  A    between atoms: _45  and  _47
REMARK   20  A    between atoms: _47  and  _48
REMARK   21  A    between atoms: _47  and  _50
REMARK   22  A    between atoms: _50  and  _51
REMARK   23  A    between atoms: _54  and  _56
REMARK   24  A    between atoms: _56  and  _57
REMARK   25  A    between atoms: _59  and  _61
REMARK   26  A    between atoms: _61  and  _62
REMARK   27  A    between atoms: _65  and  _67
REMARK   28  A    between atoms: _67  and  _68
REMARK   29  A    between atoms: _67  and  _70
REMARK   30  A    between atoms: _70  and  _71
REMARK   31  A    between atoms: _74  and  _76
REMARK   32  A    between atoms: _76  and  _77
REMARK   33  A    between atoms: _76  and  _79
REMARK   34  A    between atoms: _79  and  _80
REMARK   35  A    between atoms: _83  and  _85
REMARK   36  A    between atoms: _85  and  _86
REMARK   37  A    between atoms: _85  and  _88
REMARK   38  A    between atoms: _88  and  _89
REMARK   39  A    between atoms: _92  and  _94
REMARK   40  A    between atoms: _94  and  _95
REMARK   41  A    between atoms: _94  and  _97
REMARK   42  A    between atoms: _100  and  _102
REMARK   43  A    between atoms: _102  and  _103
REMARK   44  A    between atoms: _102  and  _105
REMARK   45  A    between atoms: _105  and  _106
REMARK   46  A    between atoms: _106  and  _107
REMARK   47  A    between atoms: _109  and  _111
REMARK   48  A    between atoms: _111  and  _112
REMARK   49  A    between atoms: _111  and  _114
REMARK   50  A    between atoms: _114  and  _115
REMARK   51  A    between atoms: _118  and  _120
REMARK   52  A    between atoms: _120  and  _121
REMARK   53  A    between atoms: _123  and  _125
REMARK   54  A    between atoms: _125  and  _126
REMARK   55  A    between atoms: _128  and  _130
REMARK   56  A    between atoms: _130  and  _131
REMARK   57  A    between atoms: _130  and  _133
REMARK   58  A    between atoms: _133  and  _134
REMARK   59  A    between atoms: _137  and  _139
REMARK   60  A    between atoms: _139  and  _140
REMARK   61  A    between atoms: _142  and  _144
REMARK   62  A    between atoms: _144  and  _145
REMARK   63  A    between atoms: _147  and  _149
REMARK   64  A    between atoms: _149  and  _150
REMARK   65  A    between atoms: _149  and  _152
REMARK   66  A    between atoms: _152  and  _153
REMARK   67  A    between atoms: _159  and  _161
REMARK   68  A    between atoms: _161  and  _162
REMARK   69  A    between atoms: _161  and  _164
REMARK   70  A    between atoms: _164  and  _165
REMARK   71  A    between atoms: _168  and  _170
REMARK   72  A    between atoms: _170  and  _171
REMARK   73  A    between atoms: _170  and  _173
REMARK   74  A    between atoms: _176  and  _178
REMARK   75  A    between atoms: _178  and  _179
REMARK   76  A    between atoms: _178  and  _181
REMARK   77  A    between atoms: _181  and  _182
REMARK   78  A    between atoms: _186  and  _187
REMARK   79  A    between atoms: _192  and  _194
REMARK   80  A    between atoms: _194  and  _195
REMARK   81  A    between atoms: _194  and  _197
REMARK   82  A    between atoms: _197  and  _198
REMARK   83  A    between atoms: _202  and  _203
REMARK   84  A    between atoms: _208  and  _210
REMARK   85  A    between atoms: _210  and  _211
REMARK   86  A    between atoms: _210  and  _213
REMARK   87  A    between atoms: _216  and  _218
REMARK   88  A    between atoms: _218  and  _219
REMARK   89  A    between atoms: _218  and  _221
REMARK   90  A    between atoms: _221  and  _222
REMARK   91  A    between atoms: _227  and  _229
REMARK   92  A    between atoms: _229  and  _230
REMARK   93  A    between atoms: _229  and  _232
REMARK   94  A    between atoms: _232  and  _233
REMARK   95  A    between atoms: _236  and  _238
REMARK   96  A    between atoms: _238  and  _239
REMARK   97  A    between atoms: _238  and  _241
REMARK   98  A    between atoms: _241  and  _242
REMARK   99  A    between atoms: _245  and  _247
REMARK  100  A    between atoms: _247  and  _248
REMARK  101  A    between atoms: _250  and  _252
REMARK  102  A    between atoms: _252  and  _253
REMARK  103  A    between atoms: _252  and  _255
REMARK  104  A    between atoms: _255  and  _256
REMARK  105  A    between atoms: _256  and  _257
REMARK  106  A    between atoms: _257  and  _258
REMARK  107  A    between atoms: _267  and  _269
REMARK  108  A    between atoms: _269  and  _270
REMARK  109  A    between atoms: _269  and  _272
REMARK  110  A    between atoms: _272  and  _273
REMARK  111  A    between atoms: _278  and  _280
REMARK  112  A    between atoms: _280  and  _281
REMARK  113  A    between atoms: _280  and  _283
REMARK  114  A    between atoms: _283  and  _284
REMARK  115  A    between atoms: _284  and  _285
REMARK  116  A    between atoms: _285  and  _286
REMARK  117  A    between atoms: _295  and  _297
REMARK  118  A    between atoms: _297  and  _298
REMARK  119  A    between atoms: _297  and  _300
REMARK  120  A    between atoms: _300  and  _301
REMARK  121  A    between atoms: _304  and  _306
REMARK  122  A    between atoms: _306  and  _307
REMARK  123  A    between atoms: _306  and  _309
REMARK  124  A    between atoms: _309  and  _310
REMARK  125  A    between atoms: _313  and  _315
REMARK  126  A    between atoms: _315  and  _316
REMARK  127  A    between atoms: _315  and  _318
REMARK  128  A    between atoms: _318  and  _319
REMARK  129  A    between atoms: _322  and  _324
REMARK  130  A    between atoms: _324  and  _325
REMARK  131  A    between atoms: _324  and  _327
REMARK  132  A    between atoms: _327  and  _328
REMARK  133  A    between atoms: _331  and  _333
REMARK  134  A    between atoms: _333  and  _334
REMARK  135  A    between atoms: _336  and  _338
REMARK  136  A    between atoms: _338  and  _339
REMARK  137  A    between atoms: _342  and  _344
REMARK  138  A    between atoms: _344  and  _345
REMARK  139  A    between atoms: _344  and  _347
REMARK  140  A    between atoms: _347  and  _348
REMARK  141  A    between atoms: _351  and  _353
REMARK  142  A    between atoms: _353  and  _354
REMARK  143  A    between atoms: _353  and  _356
REMARK  144  A    between atoms: _356  and  _357
REMARK  145  A    between atoms: _360  and  _362
REMARK  146  A    between atoms: _362  and  _363
REMARK  147  A    between atoms: _362  and  _365
REMARK  148  A    between atoms: _365  and  _366
REMARK  149  A    between atoms: _369  and  _371
REMARK  150  A    between atoms: _371  and  _372
REMARK  151  A    between atoms: _371  and  _374
REMARK  152  A    between atoms: _377  and  _379
REMARK  153  A    between atoms: _379  and  _380
REMARK  154  A    between atoms: _379  and  _382
REMARK  155  A    between atoms: _382  and  _383
REMARK  156  A    between atoms: _383  and  _384
REMARK  157  A    between atoms: _384  and  _385
REMARK  158  A    between atoms: _385  and  _386
REMARK  159  A    between atoms: _390  and  _392
REMARK  160  A    between atoms: _392  and  _393
REMARK  161  A    between atoms: _392  and  _395
REMARK  162  A    between atoms: _395  and  _396
REMARK  163  A    between atoms: _396  and  _397
REMARK  164  A    between atoms: _399  and  _401
REMARK  165  A    between atoms: _401  and  _402
REMARK  166  A    between atoms: _401  and  _404
REMARK  167  A    between atoms: _404  and  _405
REMARK  168  A    between atoms: _408  and  _410
REMARK  169  A    between atoms: _410  and  _411
REMARK  170  A    between atoms: _413  and  _415
REMARK  171  A    between atoms: _415  and  _416
REMARK  172  A    between atoms: _418  and  _420
REMARK  173  A    between atoms: _420  and  _421
REMARK  174  A    between atoms: _420  and  _423
REMARK  175  A    between atoms: _423  and  _424
REMARK  176  A    between atoms: _427  and  _429
REMARK  177  A    between atoms: _429  and  _430
REMARK  178  A    between atoms: _432  and  _434
REMARK  179  A    between atoms: _434  and  _435
REMARK  180  A    between atoms: _437  and  _439
REMARK  181  A    between atoms: _439  and  _440
REMARK  182  A    between atoms: _439  and  _442
REMARK  183  A    between atoms: _442  and  _443
REMARK  184  A    between atoms: _449  and  _451
REMARK  185  A    between atoms: _451  and  _452
REMARK  186  A    between atoms: _451  and  _454
REMARK  187  A    between atoms: _454  and  _455
REMARK  188  A    between atoms: _458  and  _460
REMARK  189  A    between atoms: _460  and  _461
REMARK  190  A    between atoms: _460  and  _463
REMARK  191  A    between atoms: _466  and  _468
REMARK  192  A    between atoms: _468  and  _469
REMARK  193  A    between atoms: _468  and  _471
REMARK  194  A    between atoms: _471  and  _472
REMARK  195  A    between atoms: _476  and  _477
REMARK  196  A    between atoms: _482  and  _484
REMARK  197  A    between atoms: _484  and  _485
REMARK  198  A    between atoms: _484  and  _487
REMARK  199  A    between atoms: _487  and  _488
REMARK  200  A    between atoms: _492  and  _493
REMARK  201  A    between atoms: _498  and  _500
REMARK  202  A    between atoms: _500  and  _501
REMARK  203  A    between atoms: _500  and  _503
REMARK  204  A    between atoms: _506  and  _508
REMARK  205  A    between atoms: _508  and  _509
REMARK  206  A    between atoms: _508  and  _511
REMARK  207  A    between atoms: _511  and  _512
REMARK  208  A    between atoms: _517  and  _519
REMARK  209  A    between atoms: _519  and  _520
REMARK  210  A    between atoms: _519  and  _522
REMARK  211  A    between atoms: _522  and  _523
REMARK  212  A    between atoms: _526  and  _528
REMARK  213  A    between atoms: _528  and  _529
REMARK  214  A    between atoms: _528  and  _531
REMARK  215  A    between atoms: _531  and  _532
REMARK  216  A    between atoms: _535  and  _537
REMARK  217  A    between atoms: _537  and  _538
REMARK  218  A    between atoms: _540  and  _542
REMARK  219  A    between atoms: _542  and  _543
REMARK  220  A    between atoms: _542  and  _545
REMARK  221  A    between atoms: _545  and  _546
REMARK  222  A    between atoms: _546  and  _547
REMARK  223  A    between atoms: _547  and  _548
REMARK  224  A    between atoms: _557  and  _559
REMARK  225  A    between atoms: _559  and  _560
REMARK  226  A    between atoms: _559  and  _562
REMARK  227  A    between atoms: _562  and  _563
REMARK                            x       y       z     vdW  Elec       q    Type
REMARK                         _______ _______ _______ _____ _____    ______ ____
ROOT
ATOM      1  O   HOH     1      18.559  34.596  19.383  0.00  0.00    +0.000 OA
ENDROOT
TORSDOF 0
REMARK  Name = ../refined-set-2016/4djo/4djo_pocket.pdb
REMARK  227 active torsions:
REMARK  status: ('A' for Active; 'I' for Inactive)
REMARK    1  A    between atoms: _1  and  _3
REMARK    2  A    between atoms: _3  and  _4
REMARK    3  A    between atoms: _3  and  _6
REMARK    4  A    between atoms: _6  and  _7
REMARK    5  A    between atoms: _7  and  _8
REMARK    6  A    between atoms: _8  and  _9
REMARK    7  A    between atoms: _18  and  _20
REMARK    8  A    between atoms: _20  and  _21
REMARK    9  A    between atoms: _20  and  _23
REMARK   10  A    between atoms: _23  and  _24
REMARK   11  A    between atoms: _27  and  _29
REMARK   12  A    between atoms: _29  and  _30
REMARK   13  A    between atoms: _29  and  _32
REMARK   14  A    between atoms: _32  and  _33
REMARK   15  A    between atoms: _36  and  _38
REMARK   16  A    between atoms: _38  and  _39
REMARK   17  A    between atoms: _38  and  _41
REMARK   18  A    between atoms: _41  and  _42
REMARK   19  A    between atoms: _45  and  _47
REMARK   20  A    between atoms: _47  and  _48
REMARK   21  A    between atoms: _47  and  _50
REMARK   22  A    between atoms: _50  and  _51
REMARK   23  A    between atoms: _54  and  _56
REMARK   24  A    between atoms: _56  and  _57
REMARK   25  A    between atoms: _59  and  _61
REMARK   26  A    between atoms: _61  and  _62
REMARK   27  A    between atoms: _65  and  _67
REMARK   28  A    between atoms: _67  and  _68
REMARK   29  A    between atoms: _67  and  _70
REMARK   30  A    between atoms: _70  and  _71
REMARK   31  A    between atoms: _74  and  _76
REMARK   32  A    between atoms: _76  and  _77
REMARK   33  A    between atoms: _76  and  _79
REMARK   34  A    between atoms: _79  and  _80
REMARK   35  A    between atoms: _83  and  _85
REMARK   36  A    between atoms: _85  and  _86
REMARK   37  A    between atoms: _85  and  _88
REMARK   38  A    between atoms: _88  and  _89
REMARK   39  A    between atoms: _92  and  _94
REMARK   40  A    between atoms: _94  and  _95
REMARK   41  A    between atoms: _94  and  _97
REMARK   42  A    between atoms: _100  and  _102
REMARK   43  A    between atoms: _102  and  _103
REMARK   44  A    between atoms: _102  and  _105
REMARK   45  A    between atoms: _105  and  _106
REMARK   46  A    between atoms: _106  and  _107
REMARK   47  A    between atoms: _109  and  _111
REMARK   48  A    between atoms: _111  and  _112
REMARK   49  A    between atoms: _111  and  _114
REMARK   50  A    between atoms: _114  and  _115
REMARK   51  A    between atoms: _118  and  _120
REMARK   52  A    between atoms: _120  and  _121
REMARK   53  A    between atoms: _123  and  _125
REMARK   54  A    between atoms: _125  and  _126
REMARK   55  A    between atoms: _128  and  _130
REMARK   56  A    between atoms: _130  and  _131
REMARK   57  A    between atoms: _130  and  _133
REMARK   58  A    between atoms: _133  and  _134
REMARK   59  A    between atoms: _137  and  _139
REMARK   60  A    between atoms: _139  and  _140
REMARK   61  A    between atoms: _142  and  _144
REMARK   62  A    between atoms: _144  and  _145
REMARK   63  A    between atoms: _147  and  _149
REMARK   64  A    between atoms: _149  and  _150
REMARK   65  A    between atoms: _149  and  _152
REMARK   66  A    between atoms: _152  and  _153
REMARK   67  A    between atoms: _159  and  _161
REMARK   68  A    between atoms: _161  and  _162
REMARK   69  A    between atoms: _161  and  _164
REMARK   70  A    between atoms: _164  and  _165
REMARK   71  A    between atoms: _168  and  _170
REMARK   72  A    between atoms: _170  and  _171
REMARK   73  A    between atoms: _170  and  _173
REMARK   74  A    between atoms: _176  and  _178
REMARK   75  A    between atoms: _178  and  _179
REMARK   76  A    between atoms: _178  and  _181
REMARK   77  A    between atoms: _181  and  _182
REMARK   78  A    between atoms: _186  and  _187
REMARK   79  A    between atoms: _192  and  _194
REMARK   80  A    between atoms: _194  and  _195
REMARK   81  A    between atoms: _194  and  _197
REMARK   82  A    between atoms: _197  and  _198
REMARK   83  A    between atoms: _202  and  _203
REMARK   84  A    between atoms: _208  and  _210
REMARK   85  A    between atoms: _210  and  _211
REMARK   86  A    between atoms: _210  and  _213
REMARK   87  A    between atoms: _216  and  _218
REMARK   88  A    between atoms: _218  and  _219
REMARK   89  A    between atoms: _218  and  _221
REMARK   90  A    between atoms: _221  and  _222
REMARK   91  A    between atoms: _227  and  _229
REMARK   92  A    between atoms: _229  and  _230
REMARK   93  A    between atoms: _229  and  _232
REMARK   94  A    between atoms: _232  and  _233
REMARK   95  A    between atoms: _236  and  _238
REMARK   96  A    between atoms: _238  and  _239
REMARK   97  A    between atoms: _238  and  _241
REMARK   98  A    between atoms: _241  and  _242
REMARK   99  A    between atoms: _245  and  _247
REMARK  100  A    between atoms: _247  and  _248
REMARK  101  A    between atoms: _250  and  _252
REMARK  102  A    between atoms: _252  and  _253
REMARK  103  A    between atoms: _252  and  _255
REMARK  104  A    between atoms: _255  and  _256
REMARK  105  A    between atoms: _256  and  _257
REMARK  106  A    between atoms: _257  and  _258
REMARK  107  A    between atoms: _267  and  _269
REMARK  108  A    between atoms: _269  and  _270
REMARK  109  A    between atoms: _269  and  _272
REMARK  110  A    between atoms: _272  and  _273
REMARK  111  A    between atoms: _278  and  _280
REMARK  112  A    between atoms: _280  and  _281
REMARK  113  A    between atoms: _280  and  _283
REMARK  114  A    between atoms: _283  and  _284
REMARK  115  A    between atoms: _284  and  _285
REMARK  116  A    between atoms: _285  and  _286
REMARK  117  A    between atoms: _295  and  _297
REMARK  118  A    between atoms: _297  and  _298
REMARK  119  A    between atoms: _297  and  _300
REMARK  120  A    between atoms: _300  and  _301
REMARK  121  A    between atoms: _304  and  _306
REMARK  122  A    between atoms: _306  and  _307
REMARK  123  A    between atoms: _306  and  _309
REMARK  124  A    between atoms: _309  and  _310
REMARK  125  A    between atoms: _313  and  _315
REMARK  126  A    between atoms: _315  and  _316
REMARK  127  A    between atoms: _315  and  _318
REMARK  128  A    between atoms: _318  and  _319
REMARK  129  A    between atoms: _322  and  _324
REMARK  130  A    between atoms: _324  and  _325
REMARK  131  A    between atoms: _324  and  _327
REMARK  132  A    between atoms: _327  and  _328
REMARK  133  A    between atoms: _331  and  _333
REMARK  134  A    between atoms: _333  and  _334
REMARK  135  A    between atoms: _336  and  _338
REMARK  136  A    between atoms: _338  and  _339
REMARK  137  A    between atoms: _342  and  _344
REMARK  138  A    between atoms: _344  and  _345
REMARK  139  A    between atoms: _344  and  _347
REMARK  140  A    between atoms: _347  and  _348
REMARK  141  A    between atoms: _351  and  _353
REMARK  142  A    between atoms: _353  and  _354
REMARK  143  A    between atoms: _353  and  _356
REMARK  144  A    between atoms: _356  and  _357
REMARK  145  A    between atoms: _360  and  _362
REMARK  146  A    between atoms: _362  and  _363
REMARK  147  A    between atoms: _362  and  _365
REMARK  148  A    between atoms: _365  and  _366
REMARK  149  A    between atoms: _369  and  _371
REMARK  150  A    between atoms: _371  and  _372
REMARK  151  A    between atoms: _371  and  _374
REMARK  152  A    between atoms: _377  and  _379
REMARK  153  A    between atoms: _379  and  _380
REMARK  154  A    between atoms: _379  and  _382
REMARK  155  A    between atoms: _382  and  _383
REMARK  156  A    between atoms: _383  and  _384
REMARK  157  A    between atoms: _384  and  _385
REMARK  158  A    between atoms: _385  and  _386
REMARK  159  A    between atoms: _390  and  _392
REMARK  160  A    between atoms: _392  and  _393
REMARK  161  A    between atoms: _392  and  _395
REMARK  162  A    between atoms: _395  and  _396
REMARK  163  A    between atoms: _396  and  _397
REMARK  164  A    between atoms: _399  and  _401
REMARK  165  A    between atoms: _401  and  _402
REMARK  166  A    between atoms: _401  and  _404
REMARK  167  A    between atoms: _404  and  _405
REMARK  168  A    between atoms: _408  and  _410
REMARK  169  A    between atoms: _410  and  _411
REMARK  170  A    between atoms: _413  and  _415
REMARK  171  A    between atoms: _415  and  _416
REMARK  172  A    between atoms: _418  and  _420
REMARK  173  A    between atoms: _420  and  _421
REMARK  174  A    between atoms: _420  and  _423
REMARK  175  A    between atoms: _423  and  _424
REMARK  176  A    between atoms: _427  and  _429
REMARK  177  A    between atoms: _429  and  _430
REMARK  178  A    between atoms: _432  and  _434
REMARK  179  A    between atoms: _434  and  _435
REMARK  180  A    between atoms: _437  and  _439
REMARK  181  A    between atoms: _439  and  _440
REMARK  182  A    between atoms: _439  and  _442
REMARK  183  A    between atoms: _442  and  _443
REMARK  184  A    between atoms: _449  and  _451
REMARK  185  A    between atoms: _451  and  _452
REMARK  186  A    between atoms: _451  and  _454
REMARK  187  A    between atoms: _454  and  _455
REMARK  188  A    between atoms: _458  and  _460
REMARK  189  A    between atoms: _460  and  _461
REMARK  190  A    between atoms: _460  and  _463
REMARK  191  A    between atoms: _466  and  _468
REMARK  192  A    between atoms: _468  and  _469
REMARK  193  A    between atoms: _468  and  _471
REMARK  194  A    between atoms: _471  and  _472
REMARK  195  A    between atoms: _476  and  _477
REMARK  196  A    between atoms: _482  and  _484
REMARK  197  A    between atoms: _484  and  _485
REMARK  198  A    between atoms: _484  and  _487
REMARK  199  A    between atoms: _487  and  _488
REMARK  200  A    between atoms: _492  and  _493
REMARK  201  A    between atoms: _498  and  _500
REMARK  202  A    between atoms: _500  and  _501
REMARK  203  A    between atoms: _500  and  _503
REMARK  204  A    between atoms: _506  and  _508
REMARK  205  A    between atoms: _508  and  _509
REMARK  206  A    between atoms: _508  and  _511
REMARK  207  A    between atoms: _511  and  _512
REMARK  208  A    between atoms: _517  and  _519
REMARK  209  A    between atoms: _519  and  _520
REMARK  210  A    between atoms: _519  and  _522
REMARK  211  A    between atoms: _522  and  _523
REMARK  212  A    between atoms: _526  and  _528
REMARK  213  A    between atoms: _528  and  _529
REMARK  214  A    between atoms: _528  and  _531
REMARK  215  A    between atoms: _531  and  _532
REMARK  216  A    between atoms: _535  and  _537
REMARK  217  A    between atoms: _537  and  _538
REMARK  218  A    between atoms: _540  and  _542
REMARK  219  A    between atoms: _542  and  _543
REMARK  220  A    between atoms: _542  and  _545
REMARK  221  A    between atoms: _545  and  _546
REMARK  222  A    between atoms: _546  and  _547
REMARK  223  A    between atoms: _547  and  _548
REMARK  224  A    between atoms: _557  and  _559
REMARK  225  A    between atoms: _559  and  _560
REMARK  226  A    between atoms: _559  and  _562
REMARK  227  A    between atoms: _562  and  _563
REMARK                            x       y       z     vdW  Elec       q    Type
REMARK                         _______ _______ _______ _____ _____    ______ ____
ROOT
ATOM      1  O   HOH     1      20.876  34.250  21.462  0.00  0.00    +0.000 OA
ENDROOT
TORSDOF 0
REMARK  Name = ../refined-set-2016/4djo/4djo_pocket.pdb
REMARK  227 active torsions:
REMARK  status: ('A' for Active; 'I' for Inactive)
REMARK    1  A    between atoms: _1  and  _3
REMARK    2  A    between atoms: _3  and  _4
REMARK    3  A    between atoms: _3  and  _6
REMARK    4  A    between atoms: _6  and  _7
REMARK    5  A    between atoms: _7  and  _8
REMARK    6  A    between atoms: _8  and  _9
REMARK    7  A    between atoms: _18  and  _20
REMARK    8  A    between atoms: _20  and  _21
REMARK    9  A    between atoms: _20  and  _23
REMARK   10  A    between atoms: _23  and  _24
REMARK   11  A    between atoms: _27  and  _29
REMARK   12  A    between atoms: _29  and  _30
REMARK   13  A    between atoms: _29  and  _32
REMARK   14  A    between atoms: _32  and  _33
REMARK   15  A    between atoms: _36  and  _38
REMARK   16  A    between atoms: _38  and  _39
REMARK   17  A    between atoms: _38  and  _41
REMARK   18  A    between atoms: _41  and  _42
REMARK   19  A    between atoms: _45  and  _47
REMARK   20  A    between atoms: _47  and  _48
REMARK   21  A    between atoms: _47  and  _50
REMARK   22  A    between atoms: _50  and  _51
REMARK   23  A    between atoms: _54  and  _56
REMARK   24  A    between atoms: _56  and  _57
REMARK   25  A    between atoms: _59  and  _61
REMARK   26  A    between atoms: _61  and  _62
REMARK   27  A    between atoms: _65  and  _67
REMARK   28  A    between atoms: _67  and  _68
REMARK   29  A    between atoms: _67  and  _70
REMARK   30  A    between atoms: _70  and  _71
REMARK   31  A    between atoms: _74  and  _76
REMARK   32  A    between atoms: _76  and  _77
REMARK   33  A    between atoms: _76  and  _79
REMARK   34  A    between atoms: _79  and  _80
REMARK   35  A    between atoms: _83  and  _85
REMARK   36  A    between atoms: _85  and  _86
REMARK   37  A    between atoms: _85  and  _88
REMARK   38  A    between atoms: _88  and  _89
REMARK   39  A    between atoms: _92  and  _94
REMARK   40  A    between atoms: _94  and  _95
REMARK   41  A    between atoms: _94  and  _97
REMARK   42  A    between atoms: _100  and  _102
REMARK   43  A    between atoms: _102  and  _103
REMARK   44  A    between atoms: _102  and  _105
REMARK   45  A    between atoms: _105  and  _106
REMARK   46  A    between atoms: _106  and  _107
REMARK   47  A    between atoms: _109  and  _111
REMARK   48  A    between atoms: _111  and  _112
REMARK   49  A    between atoms: _111  and  _114
REMARK   50  A    between atoms: _114  and  _115
REMARK   51  A    between atoms: _118  and  _120
REMARK   52  A    between atoms: _120  and  _121
REMARK   53  A    between atoms: _123  and  _125
REMARK   54  A    between atoms: _125  and  _126
REMARK   55  A    between atoms: _128  and  _130
REMARK   56  A    between atoms: _130  and  _131
REMARK   57  A    between atoms: _130  and  _133
REMARK   58  A    between atoms: _133  and  _134
REMARK   59  A    between atoms: _137  and  _139
REMARK   60  A    between atoms: _139  and  _140
REMARK   61  A    between atoms: _142  and  _144
REMARK   62  A    between atoms: _144  and  _145
REMARK   63  A    between atoms: _147  and  _149
REMARK   64  A    between atoms: _149  and  _150
REMARK   65  A    between atoms: _149  and  _152
REMARK   66  A    between atoms: _152  and  _153
REMARK   67  A    between atoms: _159  and  _161
REMARK   68  A    between atoms: _161  and  _162
REMARK   69  A    between atoms: _161  and  _164
REMARK   70  A    between atoms: _164  and  _165
REMARK   71  A    between atoms: _168  and  _170
REMARK   72  A    between atoms: _170  and  _171
REMARK   73  A    between atoms: _170  and  _173
REMARK   74  A    between atoms: _176  and  _178
REMARK   75  A    between atoms: _178  and  _179
REMARK   76  A    between atoms: _178  and  _181
REMARK   77  A    between atoms: _181  and  _182
REMARK   78  A    between atoms: _186  and  _187
REMARK   79  A    between atoms: _192  and  _194
REMARK   80  A    between atoms: _194  and  _195
REMARK   81  A    between atoms: _194  and  _197
REMARK   82  A    between atoms: _197  and  _198
REMARK   83  A    between atoms: _202  and  _203
REMARK   84  A    between atoms: _208  and  _210
REMARK   85  A    between atoms: _210  and  _211
REMARK   86  A    between atoms: _210  and  _213
REMARK   87  A    between atoms: _216  and  _218
REMARK   88  A    between atoms: _218  and  _219
REMARK   89  A    between atoms: _218  and  _221
REMARK   90  A    between atoms: _221  and  _222
REMARK   91  A    between atoms: _227  and  _229
REMARK   92  A    between atoms: _229  and  _230
REMARK   93  A    between atoms: _229  and  _232
REMARK   94  A    between atoms: _232  and  _233
REMARK   95  A    between atoms: _236  and  _238
REMARK   96  A    between atoms: _238  and  _239
REMARK   97  A    between atoms: _238  and  _241
REMARK   98  A    between atoms: _241  and  _242
REMARK   99  A    between atoms: _245  and  _247
REMARK  100  A    between atoms: _247  and  _248
REMARK  101  A    between atoms: _250  and  _252
REMARK  102  A    between atoms: _252  and  _253
REMARK  103  A    between atoms: _252  and  _255
REMARK  104  A    between atoms: _255  and  _256
REMARK  105  A    between atoms: _256  and  _257
REMARK  106  A    between atoms: _257  and  _258
REMARK  107  A    between atoms: _267  and  _269
REMARK  108  A    between atoms: _269  and  _270
REMARK  109  A    between atoms: _269  and  _272
REMARK  110  A    between atoms: _272  and  _273
REMARK  111  A    between atoms: _278  and  _280
REMARK  112  A    between atoms: _280  and  _281
REMARK  113  A    between atoms: _280  and  _283
REMARK  114  A    between atoms: _283  and  _284
REMARK  115  A    between atoms: _284  and  _285
REMARK  116  A    between atoms: _285  and  _286
REMARK  117  A    between atoms: _295  and  _297
REMARK  118  A    between atoms: _297  and  _298
REMARK  119  A    between atoms: _297  and  _300
REMARK  120  A    between atoms: _300  and  _301
REMARK  121  A    between atoms: _304  and  _306
REMARK  122  A    between atoms: _306  and  _307
REMARK  123  A    between atoms: _306  and  _309
REMARK  124  A    between atoms: _309  and  _310
REMARK  125  A    between atoms: _313  and  _315
REMARK  126  A    between atoms: _315  and  _316
REMARK  127  A    between atoms: _315  and  _318
REMARK  128  A    between atoms: _318  and  _319
REMARK  129  A    between atoms: _322  and  _324
REMARK  130  A    between atoms: _324  and  _325
REMARK  131  A    between atoms: _324  and  _327
REMARK  132  A    between atoms: _327  and  _328
REMARK  133  A    between atoms: _331  and  _333
REMARK  134  A    between atoms: _333  and  _334
REMARK  135  A    between atoms: _336  and  _338
REMARK  136  A    between atoms: _338  and  _339
REMARK  137  A    between atoms: _342  and  _344
REMARK  138  A    between atoms: _344  and  _345
REMARK  139  A    between atoms: _344  and  _347
REMARK  140  A    between atoms: _347  and  _348
REMARK  141  A    between atoms: _351  and  _353
REMARK  142  A    between atoms: _353  and  _354
REMARK  143  A    between atoms: _353  and  _356
REMARK  144  A    between atoms: _356  and  _357
REMARK  145  A    between atoms: _360  and  _362
REMARK  146  A    between atoms: _362  and  _363
REMARK  147  A    between atoms: _362  and  _365
REMARK  148  A    between atoms: _365  and  _366
REMARK  149  A    between atoms: _369  and  _371
REMARK  150  A    between atoms: _371  and  _372
REMARK  151  A    between atoms: _371  and  _374
REMARK  152  A    between atoms: _377  and  _379
REMARK  153  A    between atoms: _379  and  _380
REMARK  154  A    between atoms: _379  and  _382
REMARK  155  A    between atoms: _382  and  _383
REMARK  156  A    between atoms: _383  and  _384
REMARK  157  A    between atoms: _384  and  _385
REMARK  158  A    between atoms: _385  and  _386
REMARK  159  A    between atoms: _390  and  _392
REMARK  160  A    between atoms: _392  and  _393
REMARK  161  A    between atoms: _392  and  _395
REMARK  162  A    between atoms: _395  and  _396
REMARK  163  A    between atoms: _396  and  _397
REMARK  164  A    between atoms: _399  and  _401
REMARK  165  A    between atoms: _401  and  _402
REMARK  166  A    between atoms: _401  and  _404
REMARK  167  A    between atoms: _404  and  _405
REMARK  168  A    between atoms: _408  and  _410
REMARK  169  A    between atoms: _410  and  _411
REMARK  170  A    between atoms: _413  and  _415
REMARK  171  A    between atoms: _415  and  _416
REMARK  172  A    between atoms: _418  and  _420
REMARK  173  A    between atoms: _420  and  _421
REMARK  174  A    between atoms: _420  and  _423
REMARK  175  A    between atoms: _423  and  _424
REMARK  176  A    between atoms: _427  and  _429
REMARK  177  A    between atoms: _429  and  _430
REMARK  178  A    between atoms: _432  and  _434
REMARK  179  A    between atoms: _434  and  _435
REMARK  180  A    between atoms: _437  and  _439
REMARK  181  A    between atoms: _439  and  _440
REMARK  182  A    between atoms: _439  and  _442
REMARK  183  A    between atoms: _442  and  _443
REMARK  184  A    between atoms: _449  and  _451
REMARK  185  A    between atoms: _451  and  _452
REMARK  186  A    between atoms: _451  and  _454
REMARK  187  A    between atoms: _454  and  _455
REMARK  188  A    between atoms: _458  and  _460
REMARK  189  A    between atoms: _460  and  _461
REMARK  190  A    between atoms: _460  and  _463
REMARK  191  A    between atoms: _466  and  _468
REMARK  192  A    between atoms: _468  and  _469
REMARK  193  A    between atoms: _468  and  _471
REMARK  194  A    between atoms: _471  and  _472
REMARK  195  A    between atoms: _476  and  _477
REMARK  196  A    between atoms: _482  and  _484
REMARK  197  A    between atoms: _484  and  _485
REMARK  198  A    between atoms: _484  and  _487
REMARK  199  A    between atoms: _487  and  _488
REMARK  200  A    between atoms: _492  and  _493
REMARK  201  A    between atoms: _498  and  _500
REMARK  202  A    between atoms: _500  and  _501
REMARK  203  A    between atoms: _500  and  _503
REMARK  204  A    between atoms: _506  and  _508
REMARK  205  A    between atoms: _508  and  _509
REMARK  206  A    between atoms: _508  and  _511
REMARK  207  A    between atoms: _511  and  _512
REMARK  208  A    between atoms: _517  and  _519
REMARK  209  A    between atoms: _519  and  _520
REMARK  210  A    between atoms: _519  and  _522
REMARK  211  A    between atoms: _522  and  _523
REMARK  212  A    between atoms: _526  and  _528
REMARK  213  A    between atoms: _528  and  _529
REMARK  214  A    between atoms: _528  and  _531
REMARK  215  A    between atoms: _531  and  _532
REMARK  216  A    between atoms: _535  and  _537
REMARK  217  A    between atoms: _537  and  _538
REMARK  218  A    between atoms: _540  and  _542
REMARK  219  A    between atoms: _542  and  _543
REMARK  220  A    between atoms: _542  and  _545
REMARK  221  A    between atoms: _545  and  _546
REMARK  222  A    between atoms: _546  and  _547
REMARK  223  A    between atoms: _547  and  _548
REMARK  224  A    between atoms: _557  and  _559
REMARK  225  A    between atoms: _559  and  _560
REMARK  226  A    between atoms: _559  and  _562
REMARK  227  A    between atoms: _562  and  _563
REMARK                            x       y       z     vdW  Elec       q    Type
REMARK                         _______ _______ _______ _____ _____    ______ ____
ROOT
ATOM      1  O   HOH     1      14.617  35.074  26.047  0.00  0.00    +0.000 OA
ENDROOT
TORSDOF 0
REMARK  Name = ../refined-set-2016/4djo/4djo_pocket.pdb
REMARK  227 active torsions:
REMARK  status: ('A' for Active; 'I' for Inactive)
REMARK    1  A    between atoms: _1  and  _3
REMARK    2  A    between atoms: _3  and  _4
REMARK    3  A    between atoms: _3  and  _6
REMARK    4  A    between atoms: _6  and  _7
REMARK    5  A    between atoms: _7  and  _8
REMARK    6  A    between atoms: _8  and  _9
REMARK    7  A    between atoms: _18  and  _20
REMARK    8  A    between atoms: _20  and  _21
REMARK    9  A    between atoms: _20  and  _23
REMARK   10  A    between atoms: _23  and  _24
REMARK   11  A    between atoms: _27  and  _29
REMARK   12  A    between atoms: _29  and  _30
REMARK   13  A    between atoms: _29  and  _32
REMARK   14  A    between atoms: _32  and  _33
REMARK   15  A    between atoms: _36  and  _38
REMARK   16  A    between atoms: _38  and  _39
REMARK   17  A    between atoms: _38  and  _41
REMARK   18  A    between atoms: _41  and  _42
REMARK   19  A    between atoms: _45  and  _47
REMARK   20  A    between atoms: _47  and  _48
REMARK   21  A    between atoms: _47  and  _50
REMARK   22  A    between atoms: _50  and  _51
REMARK   23  A    between atoms: _54  and  _56
REMARK   24  A    between atoms: _56  and  _57
REMARK   25  A    between atoms: _59  and  _61
REMARK   26  A    between atoms: _61  and  _62
REMARK   27  A    between atoms: _65  and  _67
REMARK   28  A    between atoms: _67  and  _68
REMARK   29  A    between atoms: _67  and  _70
REMARK   30  A    between atoms: _70  and  _71
REMARK   31  A    between atoms: _74  and  _76
REMARK   32  A    between atoms: _76  and  _77
REMARK   33  A    between atoms: _76  and  _79
REMARK   34  A    between atoms: _79  and  _80
REMARK   35  A    between atoms: _83  and  _85
REMARK   36  A    between atoms: _85  and  _86
REMARK   37  A    between atoms: _85  and  _88
REMARK   38  A    between atoms: _88  and  _89
REMARK   39  A    between atoms: _92  and  _94
REMARK   40  A    between atoms: _94  and  _95
REMARK   41  A    between atoms: _94  and  _97
REMARK   42  A    between atoms: _100  and  _102
REMARK   43  A    between atoms: _102  and  _103
REMARK   44  A    between atoms: _102  and  _105
REMARK   45  A    between atoms: _105  and  _106
REMARK   46  A    between atoms: _106  and  _107
REMARK   47  A    between atoms: _109  and  _111
REMARK   48  A    between atoms: _111  and  _112
REMARK   49  A    between atoms: _111  and  _114
REMARK   50  A    between atoms: _114  and  _115
REMARK   51  A    between atoms: _118  and  _120
REMARK   52  A    between atoms: _120  and  _121
REMARK   53  A    between atoms: _123  and  _125
REMARK   54  A    between atoms: _125  and  _126
REMARK   55  A    between atoms: _128  and  _130
REMARK   56  A    between atoms: _130  and  _131
REMARK   57  A    between atoms: _130  and  _133
REMARK   58  A    between atoms: _133  and  _134
REMARK   59  A    between atoms: _137  and  _139
REMARK   60  A    between atoms: _139  and  _140
REMARK   61  A    between atoms: _142  and  _144
REMARK   62  A    between atoms: _144  and  _145
REMARK   63  A    between atoms: _147  and  _149
REMARK   64  A    between atoms: _149  and  _150
REMARK   65  A    between atoms: _149  and  _152
REMARK   66  A    between atoms: _152  and  _153
REMARK   67  A    between atoms: _159  and  _161
REMARK   68  A    between atoms: _161  and  _162
REMARK   69  A    between atoms: _161  and  _164
REMARK   70  A    between atoms: _164  and  _165
REMARK   71  A    between atoms: _168  and  _170
REMARK   72  A    between atoms: _170  and  _171
REMARK   73  A    between atoms: _170  and  _173
REMARK   74  A    between atoms: _176  and  _178
REMARK   75  A    between atoms: _178  and  _179
REMARK   76  A    between atoms: _178  and  _181
REMARK   77  A    between atoms: _181  and  _182
REMARK   78  A    between atoms: _186  and  _187
REMARK   79  A    between atoms: _192  and  _194
REMARK   80  A    between atoms: _194  and  _195
REMARK   81  A    between atoms: _194  and  _197
REMARK   82  A    between atoms: _197  and  _198
REMARK   83  A    between atoms: _202  and  _203
REMARK   84  A    between atoms: _208  and  _210
REMARK   85  A    between atoms: _210  and  _211
REMARK   86  A    between atoms: _210  and  _213
REMARK   87  A    between atoms: _216  and  _218
REMARK   88  A    between atoms: _218  and  _219
REMARK   89  A    between atoms: _218  and  _221
REMARK   90  A    between atoms: _221  and  _222
REMARK   91  A    between atoms: _227  and  _229
REMARK   92  A    between atoms: _229  and  _230
REMARK   93  A    between atoms: _229  and  _232
REMARK   94  A    between atoms: _232  and  _233
REMARK   95  A    between atoms: _236  and  _238
REMARK   96  A    between atoms: _238  and  _239
REMARK   97  A    between atoms: _238  and  _241
REMARK   98  A    between atoms: _241  and  _242
REMARK   99  A    between atoms: _245  and  _247
REMARK  100  A    between atoms: _247  and  _248
REMARK  101  A    between atoms: _250  and  _252
REMARK  102  A    between atoms: _252  and  _253
REMARK  103  A    between atoms: _252  and  _255
REMARK  104  A    between atoms: _255  and  _256
REMARK  105  A    between atoms: _256  and  _257
REMARK  106  A    between atoms: _257  and  _258
REMARK  107  A    between atoms: _267  and  _269
REMARK  108  A    between atoms: _269  and  _270
REMARK  109  A    between atoms: _269  and  _272
REMARK  110  A    between atoms: _272  and  _273
REMARK  111  A    between atoms: _278  and  _280
REMARK  112  A    between atoms: _280  and  _281
REMARK  113  A    between atoms: _280  and  _283
REMARK  114  A    between atoms: _283  and  _284
REMARK  115  A    between atoms: _284  and  _285
REMARK  116  A    between atoms: _285  and  _286
REMARK  117  A    between atoms: _295  and  _297
REMARK  118  A    between atoms: _297  and  _298
REMARK  119  A    between atoms: _297  and  _300
REMARK  120  A    between atoms: _300  and  _301
REMARK  121  A    between atoms: _304  and  _306
REMARK  122  A    between atoms: _306  and  _307
REMARK  123  A    between atoms: _306  and  _309
REMARK  124  A    between atoms: _309  and  _310
REMARK  125  A    between atoms: _313  and  _315
REMARK  126  A    between atoms: _315  and  _316
REMARK  127  A    between atoms: _315  and  _318
REMARK  128  A    between atoms: _318  and  _319
REMARK  129  A    between atoms: _322  and  _324
REMARK  130  A    between atoms: _324  and  _325
REMARK  131  A    between atoms: _324  and  _327
REMARK  132  A    between atoms: _327  and  _328
REMARK  133  A    between atoms: _331  and  _333
REMARK  134  A    between atoms: _333  and  _334
REMARK  135  A    between atoms: _336  and  _338
REMARK  136  A    between atoms: _338  and  _339
REMARK  137  A    between atoms: _342  and  _344
REMARK  138  A    between atoms: _344  and  _345
REMARK  139  A    between atoms: _344  and  _347
REMARK  140  A    between atoms: _347  and  _348
REMARK  141  A    between atoms: _351  and  _353
REMARK  142  A    between atoms: _353  and  _354
REMARK  143  A    between atoms: _353  and  _356
REMARK  144  A    between atoms: _356  and  _357
REMARK  145  A    between atoms: _360  and  _362
REMARK  146  A    between atoms: _362  and  _363
REMARK  147  A    between atoms: _362  and  _365
REMARK  148  A    between atoms: _365  and  _366
REMARK  149  A    between atoms: _369  and  _371
REMARK  150  A    between atoms: _371  and  _372
REMARK  151  A    between atoms: _371  and  _374
REMARK  152  A    between atoms: _377  and  _379
REMARK  153  A    between atoms: _379  and  _380
REMARK  154  A    between atoms: _379  and  _382
REMARK  155  A    between atoms: _382  and  _383
REMARK  156  A    between atoms: _383  and  _384
REMARK  157  A    between atoms: _384  and  _385
REMARK  158  A    between atoms: _385  and  _386
REMARK  159  A    between atoms: _390  and  _392
REMARK  160  A    between atoms: _392  and  _393
REMARK  161  A    between atoms: _392  and  _395
REMARK  162  A    between atoms: _395  and  _396
REMARK  163  A    between atoms: _396  and  _397
REMARK  164  A    between atoms: _399  and  _401
REMARK  165  A    between atoms: _401  and  _402
REMARK  166  A    between atoms: _401  and  _404
REMARK  167  A    between atoms: _404  and  _405
REMARK  168  A    between atoms: _408  and  _410
REMARK  169  A    between atoms: _410  and  _411
REMARK  170  A    between atoms: _413  and  _415
REMARK  171  A    between atoms: _415  and  _416
REMARK  172  A    between atoms: _418  and  _420
REMARK  173  A    between atoms: _420  and  _421
REMARK  174  A    between atoms: _420  and  _423
REMARK  175  A    between atoms: _423  and  _424
REMARK  176  A    between atoms: _427  and  _429
REMARK  177  A    between atoms: _429  and  _430
REMARK  178  A    between atoms: _432  and  _434
REMARK  179  A    between atoms: _434  and  _435
REMARK  180  A    between atoms: _437  and  _439
REMARK  181  A    between atoms: _439  and  _440
REMARK  182  A    between atoms: _439  and  _442
REMARK  183  A    between atoms: _442  and  _443
REMARK  184  A    between atoms: _449  and  _451
REMARK  185  A    between atoms: _451  and  _452
REMARK  186  A    between atoms: _451  and  _454
REMARK  187  A    between atoms: _454  and  _455
REMARK  188  A    between atoms: _458  and  _460
REMARK  189  A    between atoms: _460  and  _461
REMARK  190  A    between atoms: _460  and  _463
REMARK  191  A    between atoms: _466  and  _468
REMARK  192  A    between atoms: _468  and  _469
REMARK  193  A    between atoms: _468  and  _471
REMARK  194  A    between atoms: _471  and  _472
REMARK  195  A    between atoms: _476  and  _477
REMARK  196  A    between atoms: _482  and  _484
REMARK  197  A    between atoms: _484  and  _485
REMARK  198  A    between atoms: _484  and  _487
REMARK  199  A    between atoms: _487  and  _488
REMARK  200  A    between atoms: _492  and  _493
REMARK  201  A    between atoms: _498  and  _500
REMARK  202  A    between atoms: _500  and  _501
REMARK  203  A    between atoms: _500  and  _503
REMARK  204  A    between atoms: _506  and  _508
REMARK  205  A    between atoms: _508  and  _509
REMARK  206  A    between atoms: _508  and  _511
REMARK  207  A    between atoms: _511  and  _512
REMARK  208  A    between atoms: _517  and  _519
REMARK  209  A    between atoms: _519  and  _520
REMARK  210  A    between atoms: _519  and  _522
REMARK  211  A    between atoms: _522  and  _523
REMARK  212  A    between atoms: _526  and  _528
REMARK  213  A    between atoms: _528  and  _529
REMARK  214  A    between atoms: _528  and  _531
REMARK  215  A    between atoms: _531  and  _532
REMARK  216  A    between atoms: _535  and  _537
REMARK  217  A    between atoms: _537  and  _538
REMARK  218  A    between atoms: _540  and  _542
REMARK  219  A    between atoms: _542  and  _543
REMARK  220  A    between atoms: _542  and  _545
REMARK  221  A    between atoms: _545  and  _546
REMARK  222  A    between atoms: _546  and  _547
REMARK  223  A    between atoms: _547  and  _548
REMARK  224  A    between atoms: _557  and  _559
REMARK  225  A    between atoms: _559  and  _560
REMARK  226  A    between atoms: _559  and  _562
REMARK  227  A    between atoms: _562  and  _563
REMARK                            x       y       z     vdW  Elec       q    Type
REMARK                         _______ _______ _______ _____ _____    ______ ____
ROOT
ATOM      1  O   HOH     1      17.274  39.421  16.202  0.00  0.00    +0.000 OA
ENDROOT
TORSDOF 0
REMARK  Name = ../refined-set-2016/4djo/4djo_pocket.pdb
REMARK  227 active torsions:
REMARK  status: ('A' for Active; 'I' for Inactive)
REMARK    1  A    between atoms: _1  and  _3
REMARK    2  A    between atoms: _3  and  _4
REMARK    3  A    between atoms: _3  and  _6
REMARK    4  A    between atoms: _6  and  _7
REMARK    5  A    between atoms: _7  and  _8
REMARK    6  A    between atoms: _8  and  _9
REMARK    7  A    between atoms: _18  and  _20
REMARK    8  A    between atoms: _20  and  _21
REMARK    9  A    between atoms: _20  and  _23
REMARK   10  A    between atoms: _23  and  _24
REMARK   11  A    between atoms: _27  and  _29
REMARK   12  A    between atoms: _29  and  _30
REMARK   13  A    between atoms: _29  and  _32
REMARK   14  A    between atoms: _32  and  _33
REMARK   15  A    between atoms: _36  and  _38
REMARK   16  A    between atoms: _38  and  _39
REMARK   17  A    between atoms: _38  and  _41
REMARK   18  A    between atoms: _41  and  _42
REMARK   19  A    between atoms: _45  and  _47
REMARK   20  A    between atoms: _47  and  _48
REMARK   21  A    between atoms: _47  and  _50
REMARK   22  A    between atoms: _50  and  _51
REMARK   23  A    between atoms: _54  and  _56
REMARK   24  A    between atoms: _56  and  _57
REMARK   25  A    between atoms: _59  and  _61
REMARK   26  A    between atoms: _61  and  _62
REMARK   27  A    between atoms: _65  and  _67
REMARK   28  A    between atoms: _67  and  _68
REMARK   29  A    between atoms: _67  and  _70
REMARK   30  A    between atoms: _70  and  _71
REMARK   31  A    between atoms: _74  and  _76
REMARK   32  A    between atoms: _76  and  _77
REMARK   33  A    between atoms: _76  and  _79
REMARK   34  A    between atoms: _79  and  _80
REMARK   35  A    between atoms: _83  and  _85
REMARK   36  A    between atoms: _85  and  _86
REMARK   37  A    between atoms: _85  and  _88
REMARK   38  A    between atoms: _88  and  _89
REMARK   39  A    between atoms: _92  and  _94
REMARK   40  A    between atoms: _94  and  _95
REMARK   41  A    between atoms: _94  and  _97
REMARK   42  A    between atoms: _100  and  _102
REMARK   43  A    between atoms: _102  and  _103
REMARK   44  A    between atoms: _102  and  _105
REMARK   45  A    between atoms: _105  and  _106
REMARK   46  A    between atoms: _106  and  _107
REMARK   47  A    between atoms: _109  and  _111
REMARK   48  A    between atoms: _111  and  _112
REMARK   49  A    between atoms: _111  and  _114
REMARK   50  A    between atoms: _114  and  _115
REMARK   51  A    between atoms: _118  and  _120
REMARK   52  A    between atoms: _120  and  _121
REMARK   53  A    between atoms: _123  and  _125
REMARK   54  A    between atoms: _125  and  _126
REMARK   55  A    between atoms: _128  and  _130
REMARK   56  A    between atoms: _130  and  _131
REMARK   57  A    between atoms: _130  and  _133
REMARK   58  A    between atoms: _133  and  _134
REMARK   59  A    between atoms: _137  and  _139
REMARK   60  A    between atoms: _139  and  _140
REMARK   61  A    between atoms: _142  and  _144
REMARK   62  A    between atoms: _144  and  _145
REMARK   63  A    between atoms: _147  and  _149
REMARK   64  A    between atoms: _149  and  _150
REMARK   65  A    between atoms: _149  and  _152
REMARK   66  A    between atoms: _152  and  _153
REMARK   67  A    between atoms: _159  and  _161
REMARK   68  A    between atoms: _161  and  _162
REMARK   69  A    between atoms: _161  and  _164
REMARK   70  A    between atoms: _164  and  _165
REMARK   71  A    between atoms: _168  and  _170
REMARK   72  A    between atoms: _170  and  _171
REMARK   73  A    between atoms: _170  and  _173
REMARK   74  A    between atoms: _176  and  _178
REMARK   75  A    between atoms: _178  and  _179
REMARK   76  A    between atoms: _178  and  _181
REMARK   77  A    between atoms: _181  and  _182
REMARK   78  A    between atoms: _186  and  _187
REMARK   79  A    between atoms: _192  and  _194
REMARK   80  A    between atoms: _194  and  _195
REMARK   81  A    between atoms: _194  and  _197
REMARK   82  A    between atoms: _197  and  _198
REMARK   83  A    between atoms: _202  and  _203
REMARK   84  A    between atoms: _208  and  _210
REMARK   85  A    between atoms: _210  and  _211
REMARK   86  A    between atoms: _210  and  _213
REMARK   87  A    between atoms: _216  and  _218
REMARK   88  A    between atoms: _218  and  _219
REMARK   89  A    between atoms: _218  and  _221
REMARK   90  A    between atoms: _221  and  _222
REMARK   91  A    between atoms: _227  and  _229
REMARK   92  A    between atoms: _229  and  _230
REMARK   93  A    between atoms: _229  and  _232
REMARK   94  A    between atoms: _232  and  _233
REMARK   95  A    between atoms: _236  and  _238
REMARK   96  A    between atoms: _238  and  _239
REMARK   97  A    between atoms: _238  and  _241
REMARK   98  A    between atoms: _241  and  _242
REMARK   99  A    between atoms: _245  and  _247
REMARK  100  A    between atoms: _247  and  _248
REMARK  101  A    between atoms: _250  and  _252
REMARK  102  A    between atoms: _252  and  _253
REMARK  103  A    between atoms: _252  and  _255
REMARK  104  A    between atoms: _255  and  _256
REMARK  105  A    between atoms: _256  and  _257
REMARK  106  A    between atoms: _257  and  _258
REMARK  107  A    between atoms: _267  and  _269
REMARK  108  A    between atoms: _269  and  _270
REMARK  109  A    between atoms: _269  and  _272
REMARK  110  A    between atoms: _272  and  _273
REMARK  111  A    between atoms: _278  and  _280
REMARK  112  A    between atoms: _280  and  _281
REMARK  113  A    between atoms: _280  and  _283
REMARK  114  A    between atoms: _283  and  _284
REMARK  115  A    between atoms: _284  and  _285
REMARK  116  A    between atoms: _285  and  _286
REMARK  117  A    between atoms: _295  and  _297
REMARK  118  A    between atoms: _297  and  _298
REMARK  119  A    between atoms: _297  and  _300
REMARK  120  A    between atoms: _300  and  _301
REMARK  121  A    between atoms: _304  and  _306
REMARK  122  A    between atoms: _306  and  _307
REMARK  123  A    between atoms: _306  and  _309
REMARK  124  A    between atoms: _309  and  _310
REMARK  125  A    between atoms: _313  and  _315
REMARK  126  A    between atoms: _315  and  _316
REMARK  127  A    between atoms: _315  and  _318
REMARK  128  A    between atoms: _318  and  _319
REMARK  129  A    between atoms: _322  and  _324
REMARK  130  A    between atoms: _324  and  _325
REMARK  131  A    between atoms: _324  and  _327
REMARK  132  A    between atoms: _327  and  _328
REMARK  133  A    between atoms: _331  and  _333
REMARK  134  A    between atoms: _333  and  _334
REMARK  135  A    between atoms: _336  and  _338
REMARK  136  A    between atoms: _338  and  _339
REMARK  137  A    between atoms: _342  and  _344
REMARK  138  A    between atoms: _344  and  _345
REMARK  139  A    between atoms: _344  and  _347
REMARK  140  A    between atoms: _347  and  _348
REMARK  141  A    between atoms: _351  and  _353
REMARK  142  A    between atoms: _353  and  _354
REMARK  143  A    between atoms: _353  and  _356
REMARK  144  A    between atoms: _356  and  _357
REMARK  145  A    between atoms: _360  and  _362
REMARK  146  A    between atoms: _362  and  _363
REMARK  147  A    between atoms: _362  and  _365
REMARK  148  A    between atoms: _365  and  _366
REMARK  149  A    between atoms: _369  and  _371
REMARK  150  A    between atoms: _371  and  _372
REMARK  151  A    between atoms: _371  and  _374
REMARK  152  A    between atoms: _377  and  _379
REMARK  153  A    between atoms: _379  and  _380
REMARK  154  A    between atoms: _379  and  _382
REMARK  155  A    between atoms: _382  and  _383
REMARK  156  A    between atoms: _383  and  _384
REMARK  157  A    between atoms: _384  and  _385
REMARK  158  A    between atoms: _385  and  _386
REMARK  159  A    between atoms: _390  and  _392
REMARK  160  A    between atoms: _392  and  _393
REMARK  161  A    between atoms: _392  and  _395
REMARK  162  A    between atoms: _395  and  _396
REMARK  163  A    between atoms: _396  and  _397
REMARK  164  A    between atoms: _399  and  _401
REMARK  165  A    between atoms: _401  and  _402
REMARK  166  A    between atoms: _401  and  _404
REMARK  167  A    between atoms: _404  and  _405
REMARK  168  A    between atoms: _408  and  _410
REMARK  169  A    between atoms: _410  and  _411
REMARK  170  A    between atoms: _413  and  _415
REMARK  171  A    between atoms: _415  and  _416
REMARK  172  A    between atoms: _418  and  _420
REMARK  173  A    between atoms: _420  and  _421
REMARK  174  A    between atoms: _420  and  _423
REMARK  175  A    between atoms: _423  and  _424
REMARK  176  A    between atoms: _427  and  _429
REMARK  177  A    between atoms: _429  and  _430
REMARK  178  A    between atoms: _432  and  _434
REMARK  179  A    between atoms: _434  and  _435
REMARK  180  A    between atoms: _437  and  _439
REMARK  181  A    between atoms: _439  and  _440
REMARK  182  A    between atoms: _439  and  _442
REMARK  183  A    between atoms: _442  and  _443
REMARK  184  A    between atoms: _449  and  _451
REMARK  185  A    between atoms: _451  and  _452
REMARK  186  A    between atoms: _451  and  _454
REMARK  187  A    between atoms: _454  and  _455
REMARK  188  A    between atoms: _458  and  _460
REMARK  189  A    between atoms: _460  and  _461
REMARK  190  A    between atoms: _460  and  _463
REMARK  191  A    between atoms: _466  and  _468
REMARK  192  A    between atoms: _468  and  _469
REMARK  193  A    between atoms: _468  and  _471
REMARK  194  A    between atoms: _471  and  _472
REMARK  195  A    between atoms: _476  and  _477
REMARK  196  A    between atoms: _482  and  _484
REMARK  197  A    between atoms: _484  and  _485
REMARK  198  A    between atoms: _484  and  _487
REMARK  199  A    between atoms: _487  and  _488
REMARK  200  A    between atoms: _492  and  _493
REMARK  201  A    between atoms: _498  and  _500
REMARK  202  A    between atoms: _500  and  _501
REMARK  203  A    between atoms: _500  and  _503
REMARK  204  A    between atoms: _506  and  _508
REMARK  205  A    between atoms: _508  and  _509
REMARK  206  A    between atoms: _508  and  _511
REMARK  207  A    between atoms: _511  and  _512
REMARK  208  A    between atoms: _517  and  _519
REMARK  209  A    between atoms: _519  and  _520
REMARK  210  A    between atoms: _519  and  _522
REMARK  211  A    between atoms: _522  and  _523
REMARK  212  A    between atoms: _526  and  _528
REMARK  213  A    between atoms: _528  and  _529
REMARK  214  A    between atoms: _528  and  _531
REMARK  215  A    between atoms: _531  and  _532
REMARK  216  A    between atoms: _535  and  _537
REMARK  217  A    between atoms: _537  and  _538
REMARK  218  A    between atoms: _540  and  _542
REMARK  219  A    between atoms: _542  and  _543
REMARK  220  A    between atoms: _542  and  _545
REMARK  221  A    between atoms: _545  and  _546
REMARK  222  A    between atoms: _546  and  _547
REMARK  223  A    between atoms: _547  and  _548
REMARK  224  A    between atoms: _557  and  _559
REMARK  225  A    between atoms: _559  and  _560
REMARK  226  A    between atoms: _559  and  _562
REMARK  227  A    between atoms: _562  and  _563
REMARK                            x       y       z     vdW  Elec       q    Type
REMARK                         _______ _______ _______ _____ _____    ______ ____
ROOT
ATOM      1  O   HOH     1      17.391  23.173   8.460  0.00  0.00    +0.000 OA
ENDROOT
TORSDOF 0
REMARK  Name = ../refined-set-2016/4djo/4djo_pocket.pdb
REMARK  227 active torsions:
REMARK  status: ('A' for Active; 'I' for Inactive)
REMARK    1  A    between atoms: _1  and  _3
REMARK    2  A    between atoms: _3  and  _4
REMARK    3  A    between atoms: _3  and  _6
REMARK    4  A    between atoms: _6  and  _7
REMARK    5  A    between atoms: _7  and  _8
REMARK    6  A    between atoms: _8  and  _9
REMARK    7  A    between atoms: _18  and  _20
REMARK    8  A    between atoms: _20  and  _21
REMARK    9  A    between atoms: _20  and  _23
REMARK   10  A    between atoms: _23  and  _24
REMARK   11  A    between atoms: _27  and  _29
REMARK   12  A    between atoms: _29  and  _30
REMARK   13  A    between atoms: _29  and  _32
REMARK   14  A    between atoms: _32  and  _33
REMARK   15  A    between atoms: _36  and  _38
REMARK   16  A    between atoms: _38  and  _39
REMARK   17  A    between atoms: _38  and  _41
REMARK   18  A    between atoms: _41  and  _42
REMARK   19  A    between atoms: _45  and  _47
REMARK   20  A    between atoms: _47  and  _48
REMARK   21  A    between atoms: _47  and  _50
REMARK   22  A    between atoms: _50  and  _51
REMARK   23  A    between atoms: _54  and  _56
REMARK   24  A    between atoms: _56  and  _57
REMARK   25  A    between atoms: _59  and  _61
REMARK   26  A    between atoms: _61  and  _62
REMARK   27  A    between atoms: _65  and  _67
REMARK   28  A    between atoms: _67  and  _68
REMARK   29  A    between atoms: _67  and  _70
REMARK   30  A    between atoms: _70  and  _71
REMARK   31  A    between atoms: _74  and  _76
REMARK   32  A    between atoms: _76  and  _77
REMARK   33  A    between atoms: _76  and  _79
REMARK   34  A    between atoms: _79  and  _80
REMARK   35  A    between atoms: _83  and  _85
REMARK   36  A    between atoms: _85  and  _86
REMARK   37  A    between atoms: _85  and  _88
REMARK   38  A    between atoms: _88  and  _89
REMARK   39  A    between atoms: _92  and  _94
REMARK   40  A    between atoms: _94  and  _95
REMARK   41  A    between atoms: _94  and  _97
REMARK   42  A    between atoms: _100  and  _102
REMARK   43  A    between atoms: _102  and  _103
REMARK   44  A    between atoms: _102  and  _105
REMARK   45  A    between atoms: _105  and  _106
REMARK   46  A    between atoms: _106  and  _107
REMARK   47  A    between atoms: _109  and  _111
REMARK   48  A    between atoms: _111  and  _112
REMARK   49  A    between atoms: _111  and  _114
REMARK   50  A    between atoms: _114  and  _115
REMARK   51  A    between atoms: _118  and  _120
REMARK   52  A    between atoms: _120  and  _121
REMARK   53  A    between atoms: _123  and  _125
REMARK   54  A    between atoms: _125  and  _126
REMARK   55  A    between atoms: _128  and  _130
REMARK   56  A    between atoms: _130  and  _131
REMARK   57  A    between atoms: _130  and  _133
REMARK   58  A    between atoms: _133  and  _134
REMARK   59  A    between atoms: _137  and  _139
REMARK   60  A    between atoms: _139  and  _140
REMARK   61  A    between atoms: _142  and  _144
REMARK   62  A    between atoms: _144  and  _145
REMARK   63  A    between atoms: _147  and  _149
REMARK   64  A    between atoms: _149  and  _150
REMARK   65  A    between atoms: _149  and  _152
REMARK   66  A    between atoms: _152  and  _153
REMARK   67  A    between atoms: _159  and  _161
REMARK   68  A    between atoms: _161  and  _162
REMARK   69  A    between atoms: _161  and  _164
REMARK   70  A    between atoms: _164  and  _165
REMARK   71  A    between atoms: _168  and  _170
REMARK   72  A    between atoms: _170  and  _171
REMARK   73  A    between atoms: _170  and  _173
REMARK   74  A    between atoms: _176  and  _178
REMARK   75  A    between atoms: _178  and  _179
REMARK   76  A    between atoms: _178  and  _181
REMARK   77  A    between atoms: _181  and  _182
REMARK   78  A    between atoms: _186  and  _187
REMARK   79  A    between atoms: _192  and  _194
REMARK   80  A    between atoms: _194  and  _195
REMARK   81  A    between atoms: _194  and  _197
REMARK   82  A    between atoms: _197  and  _198
REMARK   83  A    between atoms: _202  and  _203
REMARK   84  A    between atoms: _208  and  _210
REMARK   85  A    between atoms: _210  and  _211
REMARK   86  A    between atoms: _210  and  _213
REMARK   87  A    between atoms: _216  and  _218
REMARK   88  A    between atoms: _218  and  _219
REMARK   89  A    between atoms: _218  and  _221
REMARK   90  A    between atoms: _221  and  _222
REMARK   91  A    between atoms: _227  and  _229
REMARK   92  A    between atoms: _229  and  _230
REMARK   93  A    between atoms: _229  and  _232
REMARK   94  A    between atoms: _232  and  _233
REMARK   95  A    between atoms: _236  and  _238
REMARK   96  A    between atoms: _238  and  _239
REMARK   97  A    between atoms: _238  and  _241
REMARK   98  A    between atoms: _241  and  _242
REMARK   99  A    between atoms: _245  and  _247
REMARK  100  A    between atoms: _247  and  _248
REMARK  101  A    between atoms: _250  and  _252
REMARK  102  A    between atoms: _252  and  _253
REMARK  103  A    between atoms: _252  and  _255
REMARK  104  A    between atoms: _255  and  _256
REMARK  105  A    between atoms: _256  and  _257
REMARK  106  A    between atoms: _257  and  _258
REMARK  107  A    between atoms: _267  and  _269
REMARK  108  A    between atoms: _269  and  _270
REMARK  109  A    between atoms: _269  and  _272
REMARK  110  A    between atoms: _272  and  _273
REMARK  111  A    between atoms: _278  and  _280
REMARK  112  A    between atoms: _280  and  _281
REMARK  113  A    between atoms: _280  and  _283
REMARK  114  A    between atoms: _283  and  _284
REMARK  115  A    between atoms: _284  and  _285
REMARK  116  A    between atoms: _285  and  _286
REMARK  117  A    between atoms: _295  and  _297
REMARK  118  A    between atoms: _297  and  _298
REMARK  119  A    between atoms: _297  and  _300
REMARK  120  A    between atoms: _300  and  _301
REMARK  121  A    between atoms: _304  and  _306
REMARK  122  A    between atoms: _306  and  _307
REMARK  123  A    between atoms: _306  and  _309
REMARK  124  A    between atoms: _309  and  _310
REMARK  125  A    between atoms: _313  and  _315
REMARK  126  A    between atoms: _315  and  _316
REMARK  127  A    between atoms: _315  and  _318
REMARK  128  A    between atoms: _318  and  _319
REMARK  129  A    between atoms: _322  and  _324
REMARK  130  A    between atoms: _324  and  _325
REMARK  131  A    between atoms: _324  and  _327
REMARK  132  A    between atoms: _327  and  _328
REMARK  133  A    between atoms: _331  and  _333
REMARK  134  A    between atoms: _333  and  _334
REMARK  135  A    between atoms: _336  and  _338
REMARK  136  A    between atoms: _338  and  _339
REMARK  137  A    between atoms: _342  and  _344
REMARK  138  A    between atoms: _344  and  _345
REMARK  139  A    between atoms: _344  and  _347
REMARK  140  A    between atoms: _347  and  _348
REMARK  141  A    between atoms: _351  and  _353
REMARK  142  A    between atoms: _353  and  _354
REMARK  143  A    between atoms: _353  and  _356
REMARK  144  A    between atoms: _356  and  _357
REMARK  145  A    between atoms: _360  and  _362
REMARK  146  A    between atoms: _362  and  _363
REMARK  147  A    between atoms: _362  and  _365
REMARK  148  A    between atoms: _365  and  _366
REMARK  149  A    between atoms: _369  and  _371
REMARK  150  A    between atoms: _371  and  _372
REMARK  151  A    between atoms: _371  and  _374
REMARK  152  A    between atoms: _377  and  _379
REMARK  153  A    between atoms: _379  and  _380
REMARK  154  A    between atoms: _379  and  _382
REMARK  155  A    between atoms: _382  and  _383
REMARK  156  A    between atoms: _383  and  _384
REMARK  157  A    between atoms: _384  and  _385
REMARK  158  A    between atoms: _385  and  _386
REMARK  159  A    between atoms: _390  and  _392
REMARK  160  A    between atoms: _392  and  _393
REMARK  161  A    between atoms: _392  and  _395
REMARK  162  A    between atoms: _395  and  _396
REMARK  163  A    between atoms: _396  and  _397
REMARK  164  A    between atoms: _399  and  _401
REMARK  165  A    between atoms: _401  and  _402
REMARK  166  A    between atoms: _401  and  _404
REMARK  167  A    between atoms: _404  and  _405
REMARK  168  A    between atoms: _408  and  _410
REMARK  169  A    between atoms: _410  and  _411
REMARK  170  A    between atoms: _413  and  _415
REMARK  171  A    between atoms: _415  and  _416
REMARK  172  A    between atoms: _418  and  _420
REMARK  173  A    between atoms: _420  and  _421
REMARK  174  A    between atoms: _420  and  _423
REMARK  175  A    between atoms: _423  and  _424
REMARK  176  A    between atoms: _427  and  _429
REMARK  177  A    between atoms: _429  and  _430
REMARK  178  A    between atoms: _432  and  _434
REMARK  179  A    between atoms: _434  and  _435
REMARK  180  A    between atoms: _437  and  _439
REMARK  181  A    between atoms: _439  and  _440
REMARK  182  A    between atoms: _439  and  _442
REMARK  183  A    between atoms: _442  and  _443
REMARK  184  A    between atoms: _449  and  _451
REMARK  185  A    between atoms: _451  and  _452
REMARK  186  A    between atoms: _451  and  _454
REMARK  187  A    between atoms: _454  and  _455
REMARK  188  A    between atoms: _458  and  _460
REMARK  189  A    between atoms: _460  and  _461
REMARK  190  A    between atoms: _460  and  _463
REMARK  191  A    between atoms: _466  and  _468
REMARK  192  A    between atoms: _468  and  _469
REMARK  193  A    between atoms: _468  and  _471
REMARK  194  A    between atoms: _471  and  _472
REMARK  195  A    between atoms: _476  and  _477
REMARK  196  A    between atoms: _482  and  _484
REMARK  197  A    between atoms: _484  and  _485
REMARK  198  A    between atoms: _484  and  _487
REMARK  199  A    between atoms: _487  and  _488
REMARK  200  A    between atoms: _492  and  _493
REMARK  201  A    between atoms: _498  and  _500
REMARK  202  A    between atoms: _500  and  _501
REMARK  203  A    between atoms: _500  and  _503
REMARK  204  A    between atoms: _506  and  _508
REMARK  205  A    between atoms: _508  and  _509
REMARK  206  A    between atoms: _508  and  _511
REMARK  207  A    between atoms: _511  and  _512
REMARK  208  A    between atoms: _517  and  _519
REMARK  209  A    between atoms: _519  and  _520
REMARK  210  A    between atoms: _519  and  _522
REMARK  211  A    between atoms: _522  and  _523
REMARK  212  A    between atoms: _526  and  _528
REMARK  213  A    between atoms: _528  and  _529
REMARK  214  A    between atoms: _528  and  _531
REMARK  215  A    between atoms: _531  and  _532
REMARK  216  A    between atoms: _535  and  _537
REMARK  217  A    between atoms: _537  and  _538
REMARK  218  A    between atoms: _540  and  _542
REMARK  219  A    between atoms: _542  and  _543
REMARK  220  A    between atoms: _542  and  _545
REMARK  221  A    between atoms: _545  and  _546
REMARK  222  A    between atoms: _546  and  _547
REMARK  223  A    between atoms: _547  and  _548
REMARK  224  A    between atoms: _557  and  _559
REMARK  225  A    between atoms: _559  and  _560
REMARK  226  A    between atoms: _559  and  _562
REMARK  227  A    between atoms: _562  and  _563
REMARK                            x       y       z     vdW  Elec       q    Type
REMARK                         _______ _______ _______ _____ _____    ______ ____
ROOT
ATOM      1  O   HOH     1      19.510  36.973  18.816  0.00  0.00    +0.000 OA
ENDROOT
TORSDOF 0
REMARK  Name = ../refined-set-2016/4djo/4djo_pocket.pdb
REMARK  227 active torsions:
REMARK  status: ('A' for Active; 'I' for Inactive)
REMARK    1  A    between atoms: _1  and  _3
REMARK    2  A    between atoms: _3  and  _4
REMARK    3  A    between atoms: _3  and  _6
REMARK    4  A    between atoms: _6  and  _7
REMARK    5  A    between atoms: _7  and  _8
REMARK    6  A    between atoms: _8  and  _9
REMARK    7  A    between atoms: _18  and  _20
REMARK    8  A    between atoms: _20  and  _21
REMARK    9  A    between atoms: _20  and  _23
REMARK   10  A    between atoms: _23  and  _24
REMARK   11  A    between atoms: _27  and  _29
REMARK   12  A    between atoms: _29  and  _30
REMARK   13  A    between atoms: _29  and  _32
REMARK   14  A    between atoms: _32  and  _33
REMARK   15  A    between atoms: _36  and  _38
REMARK   16  A    between atoms: _38  and  _39
REMARK   17  A    between atoms: _38  and  _41
REMARK   18  A    between atoms: _41  and  _42
REMARK   19  A    between atoms: _45  and  _47
REMARK   20  A    between atoms: _47  and  _48
REMARK   21  A    between atoms: _47  and  _50
REMARK   22  A    between atoms: _50  and  _51
REMARK   23  A    between atoms: _54  and  _56
REMARK   24  A    between atoms: _56  and  _57
REMARK   25  A    between atoms: _59  and  _61
REMARK   26  A    between atoms: _61  and  _62
REMARK   27  A    between atoms: _65  and  _67
REMARK   28  A    between atoms: _67  and  _68
REMARK   29  A    between atoms: _67  and  _70
REMARK   30  A    between atoms: _70  and  _71
REMARK   31  A    between atoms: _74  and  _76
REMARK   32  A    between atoms: _76  and  _77
REMARK   33  A    between atoms: _76  and  _79
REMARK   34  A    between atoms: _79  and  _80
REMARK   35  A    between atoms: _83  and  _85
REMARK   36  A    between atoms: _85  and  _86
REMARK   37  A    between atoms: _85  and  _88
REMARK   38  A    between atoms: _88  and  _89
REMARK   39  A    between atoms: _92  and  _94
REMARK   40  A    between atoms: _94  and  _95
REMARK   41  A    between atoms: _94  and  _97
REMARK   42  A    between atoms: _100  and  _102
REMARK   43  A    between atoms: _102  and  _103
REMARK   44  A    between atoms: _102  and  _105
REMARK   45  A    between atoms: _105  and  _106
REMARK   46  A    between atoms: _106  and  _107
REMARK   47  A    between atoms: _109  and  _111
REMARK   48  A    between atoms: _111  and  _112
REMARK   49  A    between atoms: _111  and  _114
REMARK   50  A    between atoms: _114  and  _115
REMARK   51  A    between atoms: _118  and  _120
REMARK   52  A    between atoms: _120  and  _121
REMARK   53  A    between atoms: _123  and  _125
REMARK   54  A    between atoms: _125  and  _126
REMARK   55  A    between atoms: _128  and  _130
REMARK   56  A    between atoms: _130  and  _131
REMARK   57  A    between atoms: _130  and  _133
REMARK   58  A    between atoms: _133  and  _134
REMARK   59  A    between atoms: _137  and  _139
REMARK   60  A    between atoms: _139  and  _140
REMARK   61  A    between atoms: _142  and  _144
REMARK   62  A    between atoms: _144  and  _145
REMARK   63  A    between atoms: _147  and  _149
REMARK   64  A    between atoms: _149  and  _150
REMARK   65  A    between atoms: _149  and  _152
REMARK   66  A    between atoms: _152  and  _153
REMARK   67  A    between atoms: _159  and  _161
REMARK   68  A    between atoms: _161  and  _162
REMARK   69  A    between atoms: _161  and  _164
REMARK   70  A    between atoms: _164  and  _165
REMARK   71  A    between atoms: _168  and  _170
REMARK   72  A    between atoms: _170  and  _171
REMARK   73  A    between atoms: _170  and  _173
REMARK   74  A    between atoms: _176  and  _178
REMARK   75  A    between atoms: _178  and  _179
REMARK   76  A    between atoms: _178  and  _181
REMARK   77  A    between atoms: _181  and  _182
REMARK   78  A    between atoms: _186  and  _187
REMARK   79  A    between atoms: _192  and  _194
REMARK   80  A    between atoms: _194  and  _195
REMARK   81  A    between atoms: _194  and  _197
REMARK   82  A    between atoms: _197  and  _198
REMARK   83  A    between atoms: _202  and  _203
REMARK   84  A    between atoms: _208  and  _210
REMARK   85  A    between atoms: _210  and  _211
REMARK   86  A    between atoms: _210  and  _213
REMARK   87  A    between atoms: _216  and  _218
REMARK   88  A    between atoms: _218  and  _219
REMARK   89  A    between atoms: _218  and  _221
REMARK   90  A    between atoms: _221  and  _222
REMARK   91  A    between atoms: _227  and  _229
REMARK   92  A    between atoms: _229  and  _230
REMARK   93  A    between atoms: _229  and  _232
REMARK   94  A    between atoms: _232  and  _233
REMARK   95  A    between atoms: _236  and  _238
REMARK   96  A    between atoms: _238  and  _239
REMARK   97  A    between atoms: _238  and  _241
REMARK   98  A    between atoms: _241  and  _242
REMARK   99  A    between atoms: _245  and  _247
REMARK  100  A    between atoms: _247  and  _248
REMARK  101  A    between atoms: _250  and  _252
REMARK  102  A    between atoms: _252  and  _253
REMARK  103  A    between atoms: _252  and  _255
REMARK  104  A    between atoms: _255  and  _256
REMARK  105  A    between atoms: _256  and  _257
REMARK  106  A    between atoms: _257  and  _258
REMARK  107  A    between atoms: _267  and  _269
REMARK  108  A    between atoms: _269  and  _270
REMARK  109  A    between atoms: _269  and  _272
REMARK  110  A    between atoms: _272  and  _273
REMARK  111  A    between atoms: _278  and  _280
REMARK  112  A    between atoms: _280  and  _281
REMARK  113  A    between atoms: _280  and  _283
REMARK  114  A    between atoms: _283  and  _284
REMARK  115  A    between atoms: _284  and  _285
REMARK  116  A    between atoms: _285  and  _286
REMARK  117  A    between atoms: _295  and  _297
REMARK  118  A    between atoms: _297  and  _298
REMARK  119  A    between atoms: _297  and  _300
REMARK  120  A    between atoms: _300  and  _301
REMARK  121  A    between atoms: _304  and  _306
REMARK  122  A    between atoms: _306  and  _307
REMARK  123  A    between atoms: _306  and  _309
REMARK  124  A    between atoms: _309  and  _310
REMARK  125  A    between atoms: _313  and  _315
REMARK  126  A    between atoms: _315  and  _316
REMARK  127  A    between atoms: _315  and  _318
REMARK  128  A    between atoms: _318  and  _319
REMARK  129  A    between atoms: _322  and  _324
REMARK  130  A    between atoms: _324  and  _325
REMARK  131  A    between atoms: _324  and  _327
REMARK  132  A    between atoms: _327  and  _328
REMARK  133  A    between atoms: _331  and  _333
REMARK  134  A    between atoms: _333  and  _334
REMARK  135  A    between atoms: _336  and  _338
REMARK  136  A    between atoms: _338  and  _339
REMARK  137  A    between atoms: _342  and  _344
REMARK  138  A    between atoms: _344  and  _345
REMARK  139  A    between atoms: _344  and  _347
REMARK  140  A    between atoms: _347  and  _348
REMARK  141  A    between atoms: _351  and  _353
REMARK  142  A    between atoms: _353  and  _354
REMARK  143  A    between atoms: _353  and  _356
REMARK  144  A    between atoms: _356  and  _357
REMARK  145  A    between atoms: _360  and  _362
REMARK  146  A    between atoms: _362  and  _363
REMARK  147  A    between atoms: _362  and  _365
REMARK  148  A    between atoms: _365  and  _366
REMARK  149  A    between atoms: _369  and  _371
REMARK  150  A    between atoms: _371  and  _372
REMARK  151  A    between atoms: _371  and  _374
REMARK  152  A    between atoms: _377  and  _379
REMARK  153  A    between atoms: _379  and  _380
REMARK  154  A    between atoms: _379  and  _382
REMARK  155  A    between atoms: _382  and  _383
REMARK  156  A    between atoms: _383  and  _384
REMARK  157  A    between atoms: _384  and  _385
REMARK  158  A    between atoms: _385  and  _386
REMARK  159  A    between atoms: _390  and  _392
REMARK  160  A    between atoms: _392  and  _393
REMARK  161  A    between atoms: _392  and  _395
REMARK  162  A    between atoms: _395  and  _396
REMARK  163  A    between atoms: _396  and  _397
REMARK  164  A    between atoms: _399  and  _401
REMARK  165  A    between atoms: _401  and  _402
REMARK  166  A    between atoms: _401  and  _404
REMARK  167  A    between atoms: _404  and  _405
REMARK  168  A    between atoms: _408  and  _410
REMARK  169  A    between atoms: _410  and  _411
REMARK  170  A    between atoms: _413  and  _415
REMARK  171  A    between atoms: _415  and  _416
REMARK  172  A    between atoms: _418  and  _420
REMARK  173  A    between atoms: _420  and  _421
REMARK  174  A    between atoms: _420  and  _423
REMARK  175  A    between atoms: _423  and  _424
REMARK  176  A    between atoms: _427  and  _429
REMARK  177  A    between atoms: _429  and  _430
REMARK  178  A    between atoms: _432  and  _434
REMARK  179  A    between atoms: _434  and  _435
REMARK  180  A    between atoms: _437  and  _439
REMARK  181  A    between atoms: _439  and  _440
REMARK  182  A    between atoms: _439  and  _442
REMARK  183  A    between atoms: _442  and  _443
REMARK  184  A    between atoms: _449  and  _451
REMARK  185  A    between atoms: _451  and  _452
REMARK  186  A    between atoms: _451  and  _454
REMARK  187  A    between atoms: _454  and  _455
REMARK  188  A    between atoms: _458  and  _460
REMARK  189  A    between atoms: _460  and  _461
REMARK  190  A    between atoms: _460  and  _463
REMARK  191  A    between atoms: _466  and  _468
REMARK  192  A    between atoms: _468  and  _469
REMARK  193  A    between atoms: _468  and  _471
REMARK  194  A    between atoms: _471  and  _472
REMARK  195  A    between atoms: _476  and  _477
REMARK  196  A    between atoms: _482  and  _484
REMARK  197  A    between atoms: _484  and  _485
REMARK  198  A    between atoms: _484  and  _487
REMARK  199  A    between atoms: _487  and  _488
REMARK  200  A    between atoms: _492  and  _493
REMARK  201  A    between atoms: _498  and  _500
REMARK  202  A    between atoms: _500  and  _501
REMARK  203  A    between atoms: _500  and  _503
REMARK  204  A    between atoms: _506  and  _508
REMARK  205  A    between atoms: _508  and  _509
REMARK  206  A    between atoms: _508  and  _511
REMARK  207  A    between atoms: _511  and  _512
REMARK  208  A    between atoms: _517  and  _519
REMARK  209  A    between atoms: _519  and  _520
REMARK  210  A    between atoms: _519  and  _522
REMARK  211  A    between atoms: _522  and  _523
REMARK  212  A    between atoms: _526  and  _528
REMARK  213  A    between atoms: _528  and  _529
REMARK  214  A    between atoms: _528  and  _531
REMARK  215  A    between atoms: _531  and  _532
REMARK  216  A    between atoms: _535  and  _537
REMARK  217  A    between atoms: _537  and  _538
REMARK  218  A    between atoms: _540  and  _542
REMARK  219  A    between atoms: _542  and  _543
REMARK  220  A    between atoms: _542  and  _545
REMARK  221  A    between atoms: _545  and  _546
REMARK  222  A    between atoms: _546  and  _547
REMARK  223  A    between atoms: _547  and  _548
REMARK  224  A    between atoms: _557  and  _559
REMARK  225  A    between atoms: _559  and  _560
REMARK  226  A    between atoms: _559  and  _562
REMARK  227  A    between atoms: _562  and  _563
REMARK                            x       y       z     vdW  Elec       q    Type
REMARK                         _______ _______ _______ _____ _____    ______ ____
ROOT
ATOM      1  O   HOH     1       9.904  36.518  23.478  0.00  0.00    +0.000 OA
ENDROOT
TORSDOF 0
REMARK  Name = ../refined-set-2016/4djo/4djo_pocket.pdb
REMARK  227 active torsions:
REMARK  status: ('A' for Active; 'I' for Inactive)
REMARK    1  A    between atoms: _1  and  _3
REMARK    2  A    between atoms: _3  and  _4
REMARK    3  A    between atoms: _3  and  _6
REMARK    4  A    between atoms: _6  and  _7
REMARK    5  A    between atoms: _7  and  _8
REMARK    6  A    between atoms: _8  and  _9
REMARK    7  A    between atoms: _18  and  _20
REMARK    8  A    between atoms: _20  and  _21
REMARK    9  A    between atoms: _20  and  _23
REMARK   10  A    between atoms: _23  and  _24
REMARK   11  A    between atoms: _27  and  _29
REMARK   12  A    between atoms: _29  and  _30
REMARK   13  A    between atoms: _29  and  _32
REMARK   14  A    between atoms: _32  and  _33
REMARK   15  A    between atoms: _36  and  _38
REMARK   16  A    between atoms: _38  and  _39
REMARK   17  A    between atoms: _38  and  _41
REMARK   18  A    between atoms: _41  and  _42
REMARK   19  A    between atoms: _45  and  _47
REMARK   20  A    between atoms: _47  and  _48
REMARK   21  A    between atoms: _47  and  _50
REMARK   22  A    between atoms: _50  and  _51
REMARK   23  A    between atoms: _54  and  _56
REMARK   24  A    between atoms: _56  and  _57
REMARK   25  A    between atoms: _59  and  _61
REMARK   26  A    between atoms: _61  and  _62
REMARK   27  A    between atoms: _65  and  _67
REMARK   28  A    between atoms: _67  and  _68
REMARK   29  A    between atoms: _67  and  _70
REMARK   30  A    between atoms: _70  and  _71
REMARK   31  A    between atoms: _74  and  _76
REMARK   32  A    between atoms: _76  and  _77
REMARK   33  A    between atoms: _76  and  _79
REMARK   34  A    between atoms: _79  and  _80
REMARK   35  A    between atoms: _83  and  _85
REMARK   36  A    between atoms: _85  and  _86
REMARK   37  A    between atoms: _85  and  _88
REMARK   38  A    between atoms: _88  and  _89
REMARK   39  A    between atoms: _92  and  _94
REMARK   40  A    between atoms: _94  and  _95
REMARK   41  A    between atoms: _94  and  _97
REMARK   42  A    between atoms: _100  and  _102
REMARK   43  A    between atoms: _102  and  _103
REMARK   44  A    between atoms: _102  and  _105
REMARK   45  A    between atoms: _105  and  _106
REMARK   46  A    between atoms: _106  and  _107
REMARK   47  A    between atoms: _109  and  _111
REMARK   48  A    between atoms: _111  and  _112
REMARK   49  A    between atoms: _111  and  _114
REMARK   50  A    between atoms: _114  and  _115
REMARK   51  A    between atoms: _118  and  _120
REMARK   52  A    between atoms: _120  and  _121
REMARK   53  A    between atoms: _123  and  _125
REMARK   54  A    between atoms: _125  and  _126
REMARK   55  A    between atoms: _128  and  _130
REMARK   56  A    between atoms: _130  and  _131
REMARK   57  A    between atoms: _130  and  _133
REMARK   58  A    between atoms: _133  and  _134
REMARK   59  A    between atoms: _137  and  _139
REMARK   60  A    between atoms: _139  and  _140
REMARK   61  A    between atoms: _142  and  _144
REMARK   62  A    between atoms: _144  and  _145
REMARK   63  A    between atoms: _147  and  _149
REMARK   64  A    between atoms: _149  and  _150
REMARK   65  A    between atoms: _149  and  _152
REMARK   66  A    between atoms: _152  and  _153
REMARK   67  A    between atoms: _159  and  _161
REMARK   68  A    between atoms: _161  and  _162
REMARK   69  A    between atoms: _161  and  _164
REMARK   70  A    between atoms: _164  and  _165
REMARK   71  A    between atoms: _168  and  _170
REMARK   72  A    between atoms: _170  and  _171
REMARK   73  A    between atoms: _170  and  _173
REMARK   74  A    between atoms: _176  and  _178
REMARK   75  A    between atoms: _178  and  _179
REMARK   76  A    between atoms: _178  and  _181
REMARK   77  A    between atoms: _181  and  _182
REMARK   78  A    between atoms: _186  and  _187
REMARK   79  A    between atoms: _192  and  _194
REMARK   80  A    between atoms: _194  and  _195
REMARK   81  A    between atoms: _194  and  _197
REMARK   82  A    between atoms: _197  and  _198
REMARK   83  A    between atoms: _202  and  _203
REMARK   84  A    between atoms: _208  and  _210
REMARK   85  A    between atoms: _210  and  _211
REMARK   86  A    between atoms: _210  and  _213
REMARK   87  A    between atoms: _216  and  _218
REMARK   88  A    between atoms: _218  and  _219
REMARK   89  A    between atoms: _218  and  _221
REMARK   90  A    between atoms: _221  and  _222
REMARK   91  A    between atoms: _227  and  _229
REMARK   92  A    between atoms: _229  and  _230
REMARK   93  A    between atoms: _229  and  _232
REMARK   94  A    between atoms: _232  and  _233
REMARK   95  A    between atoms: _236  and  _238
REMARK   96  A    between atoms: _238  and  _239
REMARK   97  A    between atoms: _238  and  _241
REMARK   98  A    between atoms: _241  and  _242
REMARK   99  A    between atoms: _245  and  _247
REMARK  100  A    between atoms: _247  and  _248
REMARK  101  A    between atoms: _250  and  _252
REMARK  102  A    between atoms: _252  and  _253
REMARK  103  A    between atoms: _252  and  _255
REMARK  104  A    between atoms: _255  and  _256
REMARK  105  A    between atoms: _256  and  _257
REMARK  106  A    between atoms: _257  and  _258
REMARK  107  A    between atoms: _267  and  _269
REMARK  108  A    between atoms: _269  and  _270
REMARK  109  A    between atoms: _269  and  _272
REMARK  110  A    between atoms: _272  and  _273
REMARK  111  A    between atoms: _278  and  _280
REMARK  112  A    between atoms: _280  and  _281
REMARK  113  A    between atoms: _280  and  _283
REMARK  114  A    between atoms: _283  and  _284
REMARK  115  A    between atoms: _284  and  _285
REMARK  116  A    between atoms: _285  and  _286
REMARK  117  A    between atoms: _295  and  _297
REMARK  118  A    between atoms: _297  and  _298
REMARK  119  A    between atoms: _297  and  _300
REMARK  120  A    between atoms: _300  and  _301
REMARK  121  A    between atoms: _304  and  _306
REMARK  122  A    between atoms: _306  and  _307
REMARK  123  A    between atoms: _306  and  _309
REMARK  124  A    between atoms: _309  and  _310
REMARK  125  A    between atoms: _313  and  _315
REMARK  126  A    between atoms: _315  and  _316
REMARK  127  A    between atoms: _315  and  _318
REMARK  128  A    between atoms: _318  and  _319
REMARK  129  A    between atoms: _322  and  _324
REMARK  130  A    between atoms: _324  and  _325
REMARK  131  A    between atoms: _324  and  _327
REMARK  132  A    between atoms: _327  and  _328
REMARK  133  A    between atoms: _331  and  _333
REMARK  134  A    between atoms: _333  and  _334
REMARK  135  A    between atoms: _336  and  _338
REMARK  136  A    between atoms: _338  and  _339
REMARK  137  A    between atoms: _342  and  _344
REMARK  138  A    between atoms: _344  and  _345
REMARK  139  A    between atoms: _344  and  _347
REMARK  140  A    between atoms: _347  and  _348
REMARK  141  A    between atoms: _351  and  _353
REMARK  142  A    between atoms: _353  and  _354
REMARK  143  A    between atoms: _353  and  _356
REMARK  144  A    between atoms: _356  and  _357
REMARK  145  A    between atoms: _360  and  _362
REMARK  146  A    between atoms: _362  and  _363
REMARK  147  A    between atoms: _362  and  _365
REMARK  148  A    between atoms: _365  and  _366
REMARK  149  A    between atoms: _369  and  _371
REMARK  150  A    between atoms: _371  and  _372
REMARK  151  A    between atoms: _371  and  _374
REMARK  152  A    between atoms: _377  and  _379
REMARK  153  A    between atoms: _379  and  _380
REMARK  154  A    between atoms: _379  and  _382
REMARK  155  A    between atoms: _382  and  _383
REMARK  156  A    between atoms: _383  and  _384
REMARK  157  A    between atoms: _384  and  _385
REMARK  158  A    between atoms: _385  and  _386
REMARK  159  A    between atoms: _390  and  _392
REMARK  160  A    between atoms: _392  and  _393
REMARK  161  A    between atoms: _392  and  _395
REMARK  162  A    between atoms: _395  and  _396
REMARK  163  A    between atoms: _396  and  _397
REMARK  164  A    between atoms: _399  and  _401
REMARK  165  A    between atoms: _401  and  _402
REMARK  166  A    between atoms: _401  and  _404
REMARK  167  A    between atoms: _404  and  _405
REMARK  168  A    between atoms: _408  and  _410
REMARK  169  A    between atoms: _410  and  _411
REMARK  170  A    between atoms: _413  and  _415
REMARK  171  A    between atoms: _415  and  _416
REMARK  172  A    between atoms: _418  and  _420
REMARK  173  A    between atoms: _420  and  _421
REMARK  174  A    between atoms: _420  and  _423
REMARK  175  A    between atoms: _423  and  _424
REMARK  176  A    between atoms: _427  and  _429
REMARK  177  A    between atoms: _429  and  _430
REMARK  178  A    between atoms: _432  and  _434
REMARK  179  A    between atoms: _434  and  _435
REMARK  180  A    between atoms: _437  and  _439
REMARK  181  A    between atoms: _439  and  _440
REMARK  182  A    between atoms: _439  and  _442
REMARK  183  A    between atoms: _442  and  _443
REMARK  184  A    between atoms: _449  and  _451
REMARK  185  A    between atoms: _451  and  _452
REMARK  186  A    between atoms: _451  and  _454
REMARK  187  A    between atoms: _454  and  _455
REMARK  188  A    between atoms: _458  and  _460
REMARK  189  A    between atoms: _460  and  _461
REMARK  190  A    between atoms: _460  and  _463
REMARK  191  A    between atoms: _466  and  _468
REMARK  192  A    between atoms: _468  and  _469
REMARK  193  A    between atoms: _468  and  _471
REMARK  194  A    between atoms: _471  and  _472
REMARK  195  A    between atoms: _476  and  _477
REMARK  196  A    between atoms: _482  and  _484
REMARK  197  A    between atoms: _484  and  _485
REMARK  198  A    between atoms: _484  and  _487
REMARK  199  A    between atoms: _487  and  _488
REMARK  200  A    between atoms: _492  and  _493
REMARK  201  A    between atoms: _498  and  _500
REMARK  202  A    between atoms: _500  and  _501
REMARK  203  A    between atoms: _500  and  _503
REMARK  204  A    between atoms: _506  and  _508
REMARK  205  A    between atoms: _508  and  _509
REMARK  206  A    between atoms: _508  and  _511
REMARK  207  A    between atoms: _511  and  _512
REMARK  208  A    between atoms: _517  and  _519
REMARK  209  A    between atoms: _519  and  _520
REMARK  210  A    between atoms: _519  and  _522
REMARK  211  A    between atoms: _522  and  _523
REMARK  212  A    between atoms: _526  and  _528
REMARK  213  A    between atoms: _528  and  _529
REMARK  214  A    between atoms: _528  and  _531
REMARK  215  A    between atoms: _531  and  _532
REMARK  216  A    between atoms: _535  and  _537
REMARK  217  A    between atoms: _537  and  _538
REMARK  218  A    between atoms: _540  and  _542
REMARK  219  A    between atoms: _542  and  _543
REMARK  220  A    between atoms: _542  and  _545
REMARK  221  A    between atoms: _545  and  _546
REMARK  222  A    between atoms: _546  and  _547
REMARK  223  A    between atoms: _547  and  _548
REMARK  224  A    between atoms: _557  and  _559
REMARK  225  A    between atoms: _559  and  _560
REMARK  226  A    between atoms: _559  and  _562
REMARK  227  A    between atoms: _562  and  _563
REMARK                            x       y       z     vdW  Elec       q    Type
REMARK                         _______ _______ _______ _____ _____    ______ ____
ROOT
ATOM      1  O   HOH     1       9.614  39.221  22.694  0.00  0.00    +0.000 OA
ENDROOT
TORSDOF 0
REMARK  Name = ../refined-set-2016/4djo/4djo_pocket.pdb
REMARK  227 active torsions:
REMARK  status: ('A' for Active; 'I' for Inactive)
REMARK    1  A    between atoms: _1  and  _3
REMARK    2  A    between atoms: _3  and  _4
REMARK    3  A    between atoms: _3  and  _6
REMARK    4  A    between atoms: _6  and  _7
REMARK    5  A    between atoms: _7  and  _8
REMARK    6  A    between atoms: _8  and  _9
REMARK    7  A    between atoms: _18  and  _20
REMARK    8  A    between atoms: _20  and  _21
REMARK    9  A    between atoms: _20  and  _23
REMARK   10  A    between atoms: _23  and  _24
REMARK   11  A    between atoms: _27  and  _29
REMARK   12  A    between atoms: _29  and  _30
REMARK   13  A    between atoms: _29  and  _32
REMARK   14  A    between atoms: _32  and  _33
REMARK   15  A    between atoms: _36  and  _38
REMARK   16  A    between atoms: _38  and  _39
REMARK   17  A    between atoms: _38  and  _41
REMARK   18  A    between atoms: _41  and  _42
REMARK   19  A    between atoms: _45  and  _47
REMARK   20  A    between atoms: _47  and  _48
REMARK   21  A    between atoms: _47  and  _50
REMARK   22  A    between atoms: _50  and  _51
REMARK   23  A    between atoms: _54  and  _56
REMARK   24  A    between atoms: _56  and  _57
REMARK   25  A    between atoms: _59  and  _61
REMARK   26  A    between atoms: _61  and  _62
REMARK   27  A    between atoms: _65  and  _67
REMARK   28  A    between atoms: _67  and  _68
REMARK   29  A    between atoms: _67  and  _70
REMARK   30  A    between atoms: _70  and  _71
REMARK   31  A    between atoms: _74  and  _76
REMARK   32  A    between atoms: _76  and  _77
REMARK   33  A    between atoms: _76  and  _79
REMARK   34  A    between atoms: _79  and  _80
REMARK   35  A    between atoms: _83  and  _85
REMARK   36  A    between atoms: _85  and  _86
REMARK   37  A    between atoms: _85  and  _88
REMARK   38  A    between atoms: _88  and  _89
REMARK   39  A    between atoms: _92  and  _94
REMARK   40  A    between atoms: _94  and  _95
REMARK   41  A    between atoms: _94  and  _97
REMARK   42  A    between atoms: _100  and  _102
REMARK   43  A    between atoms: _102  and  _103
REMARK   44  A    between atoms: _102  and  _105
REMARK   45  A    between atoms: _105  and  _106
REMARK   46  A    between atoms: _106  and  _107
REMARK   47  A    between atoms: _109  and  _111
REMARK   48  A    between atoms: _111  and  _112
REMARK   49  A    between atoms: _111  and  _114
REMARK   50  A    between atoms: _114  and  _115
REMARK   51  A    between atoms: _118  and  _120
REMARK   52  A    between atoms: _120  and  _121
REMARK   53  A    between atoms: _123  and  _125
REMARK   54  A    between atoms: _125  and  _126
REMARK   55  A    between atoms: _128  and  _130
REMARK   56  A    between atoms: _130  and  _131
REMARK   57  A    between atoms: _130  and  _133
REMARK   58  A    between atoms: _133  and  _134
REMARK   59  A    between atoms: _137  and  _139
REMARK   60  A    between atoms: _139  and  _140
REMARK   61  A    between atoms: _142  and  _144
REMARK   62  A    between atoms: _144  and  _145
REMARK   63  A    between atoms: _147  and  _149
REMARK   64  A    between atoms: _149  and  _150
REMARK   65  A    between atoms: _149  and  _152
REMARK   66  A    between atoms: _152  and  _153
REMARK   67  A    between atoms: _159  and  _161
REMARK   68  A    between atoms: _161  and  _162
REMARK   69  A    between atoms: _161  and  _164
REMARK   70  A    between atoms: _164  and  _165
REMARK   71  A    between atoms: _168  and  _170
REMARK   72  A    between atoms: _170  and  _171
REMARK   73  A    between atoms: _170  and  _173
REMARK   74  A    between atoms: _176  and  _178
REMARK   75  A    between atoms: _178  and  _179
REMARK   76  A    between atoms: _178  and  _181
REMARK   77  A    between atoms: _181  and  _182
REMARK   78  A    between atoms: _186  and  _187
REMARK   79  A    between atoms: _192  and  _194
REMARK   80  A    between atoms: _194  and  _195
REMARK   81  A    between atoms: _194  and  _197
REMARK   82  A    between atoms: _197  and  _198
REMARK   83  A    between atoms: _202  and  _203
REMARK   84  A    between atoms: _208  and  _210
REMARK   85  A    between atoms: _210  and  _211
REMARK   86  A    between atoms: _210  and  _213
REMARK   87  A    between atoms: _216  and  _218
REMARK   88  A    between atoms: _218  and  _219
REMARK   89  A    between atoms: _218  and  _221
REMARK   90  A    between atoms: _221  and  _222
REMARK   91  A    between atoms: _227  and  _229
REMARK   92  A    between atoms: _229  and  _230
REMARK   93  A    between atoms: _229  and  _232
REMARK   94  A    between atoms: _232  and  _233
REMARK   95  A    between atoms: _236  and  _238
REMARK   96  A    between atoms: _238  and  _239
REMARK   97  A    between atoms: _238  and  _241
REMARK   98  A    between atoms: _241  and  _242
REMARK   99  A    between atoms: _245  and  _247
REMARK  100  A    between atoms: _247  and  _248
REMARK  101  A    between atoms: _250  and  _252
REMARK  102  A    between atoms: _252  and  _253
REMARK  103  A    between atoms: _252  and  _255
REMARK  104  A    between atoms: _255  and  _256
REMARK  105  A    between atoms: _256  and  _257
REMARK  106  A    between atoms: _257  and  _258
REMARK  107  A    between atoms: _267  and  _269
REMARK  108  A    between atoms: _269  and  _270
REMARK  109  A    between atoms: _269  and  _272
REMARK  110  A    between atoms: _272  and  _273
REMARK  111  A    between atoms: _278  and  _280
REMARK  112  A    between atoms: _280  and  _281
REMARK  113  A    between atoms: _280  and  _283
REMARK  114  A    between atoms: _283  and  _284
REMARK  115  A    between atoms: _284  and  _285
REMARK  116  A    between atoms: _285  and  _286
REMARK  117  A    between atoms: _295  and  _297
REMARK  118  A    between atoms: _297  and  _298
REMARK  119  A    between atoms: _297  and  _300
REMARK  120  A    between atoms: _300  and  _301
REMARK  121  A    between atoms: _304  and  _306
REMARK  122  A    between atoms: _306  and  _307
REMARK  123  A    between atoms: _306  and  _309
REMARK  124  A    between atoms: _309  and  _310
REMARK  125  A    between atoms: _313  and  _315
REMARK  126  A    between atoms: _315  and  _316
REMARK  127  A    between atoms: _315  and  _318
REMARK  128  A    between atoms: _318  and  _319
REMARK  129  A    between atoms: _322  and  _324
REMARK  130  A    between atoms: _324  and  _325
REMARK  131  A    between atoms: _324  and  _327
REMARK  132  A    between atoms: _327  and  _328
REMARK  133  A    between atoms: _331  and  _333
REMARK  134  A    between atoms: _333  and  _334
REMARK  135  A    between atoms: _336  and  _338
REMARK  136  A    between atoms: _338  and  _339
REMARK  137  A    between atoms: _342  and  _344
REMARK  138  A    between atoms: _344  and  _345
REMARK  139  A    between atoms: _344  and  _347
REMARK  140  A    between atoms: _347  and  _348
REMARK  141  A    between atoms: _351  and  _353
REMARK  142  A    between atoms: _353  and  _354
REMARK  143  A    between atoms: _353  and  _356
REMARK  144  A    between atoms: _356  and  _357
REMARK  145  A    between atoms: _360  and  _362
REMARK  146  A    between atoms: _362  and  _363
REMARK  147  A    between atoms: _362  and  _365
REMARK  148  A    between atoms: _365  and  _366
REMARK  149  A    between atoms: _369  and  _371
REMARK  150  A    between atoms: _371  and  _372
REMARK  151  A    between atoms: _371  and  _374
REMARK  152  A    between atoms: _377  and  _379
REMARK  153  A    between atoms: _379  and  _380
REMARK  154  A    between atoms: _379  and  _382
REMARK  155  A    between atoms: _382  and  _383
REMARK  156  A    between atoms: _383  and  _384
REMARK  157  A    between atoms: _384  and  _385
REMARK  158  A    between atoms: _385  and  _386
REMARK  159  A    between atoms: _390  and  _392
REMARK  160  A    between atoms: _392  and  _393
REMARK  161  A    between atoms: _392  and  _395
REMARK  162  A    between atoms: _395  and  _396
REMARK  163  A    between atoms: _396  and  _397
REMARK  164  A    between atoms: _399  and  _401
REMARK  165  A    between atoms: _401  and  _402
REMARK  166  A    between atoms: _401  and  _404
REMARK  167  A    between atoms: _404  and  _405
REMARK  168  A    between atoms: _408  and  _410
REMARK  169  A    between atoms: _410  and  _411
REMARK  170  A    between atoms: _413  and  _415
REMARK  171  A    between atoms: _415  and  _416
REMARK  172  A    between atoms: _418  and  _420
REMARK  173  A    between atoms: _420  and  _421
REMARK  174  A    between atoms: _420  and  _423
REMARK  175  A    between atoms: _423  and  _424
REMARK  176  A    between atoms: _427  and  _429
REMARK  177  A    between atoms: _429  and  _430
REMARK  178  A    between atoms: _432  and  _434
REMARK  179  A    between atoms: _434  and  _435
REMARK  180  A    between atoms: _437  and  _439
REMARK  181  A    between atoms: _439  and  _440
REMARK  182  A    between atoms: _439  and  _442
REMARK  183  A    between atoms: _442  and  _443
REMARK  184  A    between atoms: _449  and  _451
REMARK  185  A    between atoms: _451  and  _452
REMARK  186  A    between atoms: _451  and  _454
REMARK  187  A    between atoms: _454  and  _455
REMARK  188  A    between atoms: _458  and  _460
REMARK  189  A    between atoms: _460  and  _461
REMARK  190  A    between atoms: _460  and  _463
REMARK  191  A    between atoms: _466  and  _468
REMARK  192  A    between atoms: _468  and  _469
REMARK  193  A    between atoms: _468  and  _471
REMARK  194  A    between atoms: _471  and  _472
REMARK  195  A    between atoms: _476  and  _477
REMARK  196  A    between atoms: _482  and  _484
REMARK  197  A    between atoms: _484  and  _485
REMARK  198  A    between atoms: _484  and  _487
REMARK  199  A    between atoms: _487  and  _488
REMARK  200  A    between atoms: _492  and  _493
REMARK  201  A    between atoms: _498  and  _500
REMARK  202  A    between atoms: _500  and  _501
REMARK  203  A    between atoms: _500  and  _503
REMARK  204  A    between atoms: _506  and  _508
REMARK  205  A    between atoms: _508  and  _509
REMARK  206  A    between atoms: _508  and  _511
REMARK  207  A    between atoms: _511  and  _512
REMARK  208  A    between atoms: _517  and  _519
REMARK  209  A    between atoms: _519  and  _520
REMARK  210  A    between atoms: _519  and  _522
REMARK  211  A    between atoms: _522  and  _523
REMARK  212  A    between atoms: _526  and  _528
REMARK  213  A    between atoms: _528  and  _529
REMARK  214  A    between atoms: _528  and  _531
REMARK  215  A    between atoms: _531  and  _532
REMARK  216  A    between atoms: _535  and  _537
REMARK  217  A    between atoms: _537  and  _538
REMARK  218  A    between atoms: _540  and  _542
REMARK  219  A    between atoms: _542  and  _543
REMARK  220  A    between atoms: _542  and  _545
REMARK  221  A    between atoms: _545  and  _546
REMARK  222  A    between atoms: _546  and  _547
REMARK  223  A    between atoms: _547  and  _548
REMARK  224  A    between atoms: _557  and  _559
REMARK  225  A    between atoms: _559  and  _560
REMARK  226  A    between atoms: _559  and  _562
REMARK  227  A    between atoms: _562  and  _563
REMARK                            x       y       z     vdW  Elec       q    Type
REMARK                         _______ _______ _______ _____ _____    ______ ____
ROOT
ATOM      1  O   HOH     1      15.375  18.346  10.393  0.00  0.00    +0.000 OA
ENDROOT
TORSDOF 0
REMARK  Name = ../refined-set-2016/4djo/4djo_pocket.pdb
REMARK  227 active torsions:
REMARK  status: ('A' for Active; 'I' for Inactive)
REMARK    1  A    between atoms: _1  and  _3
REMARK    2  A    between atoms: _3  and  _4
REMARK    3  A    between atoms: _3  and  _6
REMARK    4  A    between atoms: _6  and  _7
REMARK    5  A    between atoms: _7  and  _8
REMARK    6  A    between atoms: _8  and  _9
REMARK    7  A    between atoms: _18  and  _20
REMARK    8  A    between atoms: _20  and  _21
REMARK    9  A    between atoms: _20  and  _23
REMARK   10  A    between atoms: _23  and  _24
REMARK   11  A    between atoms: _27  and  _29
REMARK   12  A    between atoms: _29  and  _30
REMARK   13  A    between atoms: _29  and  _32
REMARK   14  A    between atoms: _32  and  _33
REMARK   15  A    between atoms: _36  and  _38
REMARK   16  A    between atoms: _38  and  _39
REMARK   17  A    between atoms: _38  and  _41
REMARK   18  A    between atoms: _41  and  _42
REMARK   19  A    between atoms: _45  and  _47
REMARK   20  A    between atoms: _47  and  _48
REMARK   21  A    between atoms: _47  and  _50
REMARK   22  A    between atoms: _50  and  _51
REMARK   23  A    between atoms: _54  and  _56
REMARK   24  A    between atoms: _56  and  _57
REMARK   25  A    between atoms: _59  and  _61
REMARK   26  A    between atoms: _61  and  _62
REMARK   27  A    between atoms: _65  and  _67
REMARK   28  A    between atoms: _67  and  _68
REMARK   29  A    between atoms: _67  and  _70
REMARK   30  A    between atoms: _70  and  _71
REMARK   31  A    between atoms: _74  and  _76
REMARK   32  A    between atoms: _76  and  _77
REMARK   33  A    between atoms: _76  and  _79
REMARK   34  A    between atoms: _79  and  _80
REMARK   35  A    between atoms: _83  and  _85
REMARK   36  A    between atoms: _85  and  _86
REMARK   37  A    between atoms: _85  and  _88
REMARK   38  A    between atoms: _88  and  _89
REMARK   39  A    between atoms: _92  and  _94
REMARK   40  A    between atoms: _94  and  _95
REMARK   41  A    between atoms: _94  and  _97
REMARK   42  A    between atoms: _100  and  _102
REMARK   43  A    between atoms: _102  and  _103
REMARK   44  A    between atoms: _102  and  _105
REMARK   45  A    between atoms: _105  and  _106
REMARK   46  A    between atoms: _106  and  _107
REMARK   47  A    between atoms: _109  and  _111
REMARK   48  A    between atoms: _111  and  _112
REMARK   49  A    between atoms: _111  and  _114
REMARK   50  A    between atoms: _114  and  _115
REMARK   51  A    between atoms: _118  and  _120
REMARK   52  A    between atoms: _120  and  _121
REMARK   53  A    between atoms: _123  and  _125
REMARK   54  A    between atoms: _125  and  _126
REMARK   55  A    between atoms: _128  and  _130
REMARK   56  A    between atoms: _130  and  _131
REMARK   57  A    between atoms: _130  and  _133
REMARK   58  A    between atoms: _133  and  _134
REMARK   59  A    between atoms: _137  and  _139
REMARK   60  A    between atoms: _139  and  _140
REMARK   61  A    between atoms: _142  and  _144
REMARK   62  A    between atoms: _144  and  _145
REMARK   63  A    between atoms: _147  and  _149
REMARK   64  A    between atoms: _149  and  _150
REMARK   65  A    between atoms: _149  and  _152
REMARK   66  A    between atoms: _152  and  _153
REMARK   67  A    between atoms: _159  and  _161
REMARK   68  A    between atoms: _161  and  _162
REMARK   69  A    between atoms: _161  and  _164
REMARK   70  A    between atoms: _164  and  _165
REMARK   71  A    between atoms: _168  and  _170
REMARK   72  A    between atoms: _170  and  _171
REMARK   73  A    between atoms: _170  and  _173
REMARK   74  A    between atoms: _176  and  _178
REMARK   75  A    between atoms: _178  and  _179
REMARK   76  A    between atoms: _178  and  _181
REMARK   77  A    between atoms: _181  and  _182
REMARK   78  A    between atoms: _186  and  _187
REMARK   79  A    between atoms: _192  and  _194
REMARK   80  A    between atoms: _194  and  _195
REMARK   81  A    between atoms: _194  and  _197
REMARK   82  A    between atoms: _197  and  _198
REMARK   83  A    between atoms: _202  and  _203
REMARK   84  A    between atoms: _208  and  _210
REMARK   85  A    between atoms: _210  and  _211
REMARK   86  A    between atoms: _210  and  _213
REMARK   87  A    between atoms: _216  and  _218
REMARK   88  A    between atoms: _218  and  _219
REMARK   89  A    between atoms: _218  and  _221
REMARK   90  A    between atoms: _221  and  _222
REMARK   91  A    between atoms: _227  and  _229
REMARK   92  A    between atoms: _229  and  _230
REMARK   93  A    between atoms: _229  and  _232
REMARK   94  A    between atoms: _232  and  _233
REMARK   95  A    between atoms: _236  and  _238
REMARK   96  A    between atoms: _238  and  _239
REMARK   97  A    between atoms: _238  and  _241
REMARK   98  A    between atoms: _241  and  _242
REMARK   99  A    between atoms: _245  and  _247
REMARK  100  A    between atoms: _247  and  _248
REMARK  101  A    between atoms: _250  and  _252
REMARK  102  A    between atoms: _252  and  _253
REMARK  103  A    between atoms: _252  and  _255
REMARK  104  A    between atoms: _255  and  _256
REMARK  105  A    between atoms: _256  and  _257
REMARK  106  A    between atoms: _257  and  _258
REMARK  107  A    between atoms: _267  and  _269
REMARK  108  A    between atoms: _269  and  _270
REMARK  109  A    between atoms: _269  and  _272
REMARK  110  A    between atoms: _272  and  _273
REMARK  111  A    between atoms: _278  and  _280
REMARK  112  A    between atoms: _280  and  _281
REMARK  113  A    between atoms: _280  and  _283
REMARK  114  A    between atoms: _283  and  _284
REMARK  115  A    between atoms: _284  and  _285
REMARK  116  A    between atoms: _285  and  _286
REMARK  117  A    between atoms: _295  and  _297
REMARK  118  A    between atoms: _297  and  _298
REMARK  119  A    between atoms: _297  and  _300
REMARK  120  A    between atoms: _300  and  _301
REMARK  121  A    between atoms: _304  and  _306
REMARK  122  A    between atoms: _306  and  _307
REMARK  123  A    between atoms: _306  and  _309
REMARK  124  A    between atoms: _309  and  _310
REMARK  125  A    between atoms: _313  and  _315
REMARK  126  A    between atoms: _315  and  _316
REMARK  127  A    between atoms: _315  and  _318
REMARK  128  A    between atoms: _318  and  _319
REMARK  129  A    between atoms: _322  and  _324
REMARK  130  A    between atoms: _324  and  _325
REMARK  131  A    between atoms: _324  and  _327
REMARK  132  A    between atoms: _327  and  _328
REMARK  133  A    between atoms: _331  and  _333
REMARK  134  A    between atoms: _333  and  _334
REMARK  135  A    between atoms: _336  and  _338
REMARK  136  A    between atoms: _338  and  _339
REMARK  137  A    between atoms: _342  and  _344
REMARK  138  A    between atoms: _344  and  _345
REMARK  139  A    between atoms: _344  and  _347
REMARK  140  A    between atoms: _347  and  _348
REMARK  141  A    between atoms: _351  and  _353
REMARK  142  A    between atoms: _353  and  _354
REMARK  143  A    between atoms: _353  and  _356
REMARK  144  A    between atoms: _356  and  _357
REMARK  145  A    between atoms: _360  and  _362
REMARK  146  A    between atoms: _362  and  _363
REMARK  147  A    between atoms: _362  and  _365
REMARK  148  A    between atoms: _365  and  _366
REMARK  149  A    between atoms: _369  and  _371
REMARK  150  A    between atoms: _371  and  _372
REMARK  151  A    between atoms: _371  and  _374
REMARK  152  A    between atoms: _377  and  _379
REMARK  153  A    between atoms: _379  and  _380
REMARK  154  A    between atoms: _379  and  _382
REMARK  155  A    between atoms: _382  and  _383
REMARK  156  A    between atoms: _383  and  _384
REMARK  157  A    between atoms: _384  and  _385
REMARK  158  A    between atoms: _385  and  _386
REMARK  159  A    between atoms: _390  and  _392
REMARK  160  A    between atoms: _392  and  _393
REMARK  161  A    between atoms: _392  and  _395
REMARK  162  A    between atoms: _395  and  _396
REMARK  163  A    between atoms: _396  and  _397
REMARK  164  A    between atoms: _399  and  _401
REMARK  165  A    between atoms: _401  and  _402
REMARK  166  A    between atoms: _401  and  _404
REMARK  167  A    between atoms: _404  and  _405
REMARK  168  A    between atoms: _408  and  _410
REMARK  169  A    between atoms: _410  and  _411
REMARK  170  A    between atoms: _413  and  _415
REMARK  171  A    between atoms: _415  and  _416
REMARK  172  A    between atoms: _418  and  _420
REMARK  173  A    between atoms: _420  and  _421
REMARK  174  A    between atoms: _420  and  _423
REMARK  175  A    between atoms: _423  and  _424
REMARK  176  A    between atoms: _427  and  _429
REMARK  177  A    between atoms: _429  and  _430
REMARK  178  A    between atoms: _432  and  _434
REMARK  179  A    between atoms: _434  and  _435
REMARK  180  A    between atoms: _437  and  _439
REMARK  181  A    between atoms: _439  and  _440
REMARK  182  A    between atoms: _439  and  _442
REMARK  183  A    between atoms: _442  and  _443
REMARK  184  A    between atoms: _449  and  _451
REMARK  185  A    between atoms: _451  and  _452
REMARK  186  A    between atoms: _451  and  _454
REMARK  187  A    between atoms: _454  and  _455
REMARK  188  A    between atoms: _458  and  _460
REMARK  189  A    between atoms: _460  and  _461
REMARK  190  A    between atoms: _460  and  _463
REMARK  191  A    between atoms: _466  and  _468
REMARK  192  A    between atoms: _468  and  _469
REMARK  193  A    between atoms: _468  and  _471
REMARK  194  A    between atoms: _471  and  _472
REMARK  195  A    between atoms: _476  and  _477
REMARK  196  A    between atoms: _482  and  _484
REMARK  197  A    between atoms: _484  and  _485
REMARK  198  A    between atoms: _484  and  _487
REMARK  199  A    between atoms: _487  and  _488
REMARK  200  A    between atoms: _492  and  _493
REMARK  201  A    between atoms: _498  and  _500
REMARK  202  A    between atoms: _500  and  _501
REMARK  203  A    between atoms: _500  and  _503
REMARK  204  A    between atoms: _506  and  _508
REMARK  205  A    between atoms: _508  and  _509
REMARK  206  A    between atoms: _508  and  _511
REMARK  207  A    between atoms: _511  and  _512
REMARK  208  A    between atoms: _517  and  _519
REMARK  209  A    between atoms: _519  and  _520
REMARK  210  A    between atoms: _519  and  _522
REMARK  211  A    between atoms: _522  and  _523
REMARK  212  A    between atoms: _526  and  _528
REMARK  213  A    between atoms: _528  and  _529
REMARK  214  A    between atoms: _528  and  _531
REMARK  215  A    between atoms: _531  and  _532
REMARK  216  A    between atoms: _535  and  _537
REMARK  217  A    between atoms: _537  and  _538
REMARK  218  A    between atoms: _540  and  _542
REMARK  219  A    between atoms: _542  and  _543
REMARK  220  A    between atoms: _542  and  _545
REMARK  221  A    between atoms: _545  and  _546
REMARK  222  A    between atoms: _546  and  _547
REMARK  223  A    between atoms: _547  and  _548
REMARK  224  A    between atoms: _557  and  _559
REMARK  225  A    between atoms: _559  and  _560
REMARK  226  A    between atoms: _559  and  _562
REMARK  227  A    between atoms: _562  and  _563
REMARK                            x       y       z     vdW  Elec       q    Type
REMARK                         _______ _______ _______ _____ _____    ______ ____
ROOT
ATOM      1  O   HOH     1      16.623  39.272  21.052  0.00  0.00    +0.000 OA
ENDROOT
TORSDOF 0
