REMARK  Name = ../refined-set-2016/2j7h/2j7h_pocket.pdb
REMARK  154 active torsions:
REMARK  status: ('A' for Active; 'I' for Inactive)
REMARK    1  A    between atoms: _1  and  _3
REMARK    2  A    between atoms: _3  and  _4
REMARK    3  A    between atoms: _7  and  _9
REMARK    4  A    between atoms: _9  and  _10
REMARK    5  A    between atoms: _9  and  _12
REMARK    6  A    between atoms: _12  and  _13
REMARK    7  A    between atoms: _16  and  _18
REMARK    8  A    between atoms: _18  and  _19
REMARK    9  A    between atoms: _22  and  _24
REMARK   10  A    between atoms: _24  and  _25
REMARK   11  A    between atoms: _24  and  _27
REMARK   12  A    between atoms: _27  and  _28
REMARK   13  A    between atoms: _30  and  _32
REMARK   14  A    between atoms: _32  and  _33
REMARK   15  A    between atoms: _32  and  _35
REMARK   16  A    between atoms: _35  and  _36
REMARK   17  A    between atoms: _41  and  _42
REMARK   18  A    between atoms: _44  and  _46
REMARK   19  A    between atoms: _46  and  _47
REMARK   20  A    between atoms: _46  and  _49
REMARK   21  A    between atoms: _49  and  _50
REMARK   22  A    between atoms: _50  and  _51
REMARK   23  A    between atoms: _56  and  _58
REMARK   24  A    between atoms: _58  and  _59
REMARK   25  A    between atoms: _58  and  _61
REMARK   26  A    between atoms: _61  and  _62
REMARK   27  A    between atoms: _62  and  _63
REMARK   28  A    between atoms: _63  and  _64
REMARK   29  A    between atoms: _73  and  _75
REMARK   30  A    between atoms: _75  and  _76
REMARK   31  A    between atoms: _75  and  _78
REMARK   32  A    between atoms: _78  and  _79
REMARK   33  A    between atoms: _82  and  _84
REMARK   34  A    between atoms: _84  and  _85
REMARK   35  A    between atoms: _84  and  _87
REMARK   36  A    between atoms: _87  and  _88
REMARK   37  A    between atoms: _93  and  _95
REMARK   38  A    between atoms: _95  and  _96
REMARK   39  A    between atoms: _95  and  _98
REMARK   40  A    between atoms: _98  and  _99
REMARK   41  A    between atoms: _109  and  _111
REMARK   42  A    between atoms: _111  and  _112
REMARK   43  A    between atoms: _111  and  _114
REMARK   44  A    between atoms: _114  and  _115
REMARK   45  A    between atoms: _120  and  _122
REMARK   46  A    between atoms: _122  and  _123
REMARK   47  A    between atoms: _122  and  _125
REMARK   48  A    between atoms: _125  and  _126
REMARK   49  A    between atoms: _126  and  _127
REMARK   50  A    between atoms: _130  and  _132
REMARK   51  A    between atoms: _132  and  _133
REMARK   52  A    between atoms: _132  and  _135
REMARK   53  A    between atoms: _138  and  _140
REMARK   54  A    between atoms: _140  and  _141
REMARK   55  A    between atoms: _140  and  _143
REMARK   56  A    between atoms: _143  and  _144
REMARK   57  A    between atoms: _149  and  _151
REMARK   58  A    between atoms: _151  and  _152
REMARK   59  A    between atoms: _151  and  _154
REMARK   60  A    between atoms: _157  and  _159
REMARK   61  A    between atoms: _159  and  _160
REMARK   62  A    between atoms: _159  and  _162
REMARK   63  A    between atoms: _162  and  _163
REMARK   64  A    between atoms: _169  and  _171
REMARK   65  A    between atoms: _171  and  _172
REMARK   66  A    between atoms: _171  and  _174
REMARK   67  A    between atoms: _174  and  _175
REMARK   68  A    between atoms: _180  and  _182
REMARK   69  A    between atoms: _182  and  _183
REMARK   70  A    between atoms: _182  and  _185
REMARK   71  A    between atoms: _185  and  _186
REMARK   72  A    between atoms: _191  and  _193
REMARK   73  A    between atoms: _193  and  _194
REMARK   74  A    between atoms: _193  and  _196
REMARK   75  A    between atoms: _196  and  _197
REMARK   76  A    between atoms: _202  and  _204
REMARK   77  A    between atoms: _204  and  _205
REMARK   78  A    between atoms: _204  and  _207
REMARK   79  A    between atoms: _207  and  _208
REMARK   80  A    between atoms: _213  and  _214
REMARK   81  A    between atoms: _216  and  _218
REMARK   82  A    between atoms: _218  and  _219
REMARK   83  A    between atoms: _218  and  _221
REMARK   84  A    between atoms: _221  and  _222
REMARK   85  A    between atoms: _227  and  _228
REMARK   86  A    between atoms: _230  and  _232
REMARK   87  A    between atoms: _232  and  _233
REMARK   88  A    between atoms: _232  and  _235
REMARK   89  A    between atoms: _235  and  _236
REMARK   90  A    between atoms: _236  and  _237
REMARK   91  A    between atoms: _239  and  _241
REMARK   92  A    between atoms: _241  and  _242
REMARK   93  A    between atoms: _241  and  _244
REMARK   94  A    between atoms: _244  and  _245
REMARK   95  A    between atoms: _255  and  _257
REMARK   96  A    between atoms: _257  and  _258
REMARK   97  A    between atoms: _257  and  _260
REMARK   98  A    between atoms: _260  and  _261
REMARK   99  A    between atoms: _264  and  _266
REMARK  100  A    between atoms: _266  and  _267
REMARK  101  A    between atoms: _266  and  _269
REMARK  102  A    between atoms: _269  and  _270
REMARK  103  A    between atoms: _270  and  _271
REMARK  104  A    between atoms: _274  and  _276
REMARK  105  A    between atoms: _276  and  _277
REMARK  106  A    between atoms: _276  and  _279
REMARK  107  A    between atoms: _279  and  _280
REMARK  108  A    between atoms: _285  and  _287
REMARK  109  A    between atoms: _287  and  _288
REMARK  110  A    between atoms: _290  and  _292
REMARK  111  A    between atoms: _292  and  _293
REMARK  112  A    between atoms: _296  and  _298
REMARK  113  A    between atoms: _298  and  _299
REMARK  114  A    between atoms: _302  and  _304
REMARK  115  A    between atoms: _304  and  _305
REMARK  116  A    between atoms: _304  and  _307
REMARK  117  A    between atoms: _307  and  _308
REMARK  118  A    between atoms: _318  and  _320
REMARK  119  A    between atoms: _320  and  _321
REMARK  120  A    between atoms: _320  and  _323
REMARK  121  A    between atoms: _323  and  _324
REMARK  122  A    between atoms: _326  and  _328
REMARK  123  A    between atoms: _328  and  _329
REMARK  124  A    between atoms: _328  and  _331
REMARK  125  A    between atoms: _331  and  _332
REMARK  126  A    between atoms: _337  and  _339
REMARK  127  A    between atoms: _339  and  _340
REMARK  128  A    between atoms: _339  and  _342
REMARK  129  A    between atoms: _342  and  _343
REMARK  130  A    between atoms: _349  and  _351
REMARK  131  A    between atoms: _351  and  _352
REMARK  132  A    between atoms: _351  and  _354
REMARK  133  A    between atoms: _354  and  _355
REMARK  134  A    between atoms: _355  and  _356
REMARK  135  A    between atoms: _359  and  _361
REMARK  136  A    between atoms: _361  and  _362
REMARK  137  A    between atoms: _361  and  _364
REMARK  138  A    between atoms: _364  and  _365
REMARK  139  A    between atoms: _375  and  _377
REMARK  140  A    between atoms: _377  and  _378
REMARK  141  A    between atoms: _377  and  _380
REMARK  142  A    between atoms: _380  and  _381
REMARK  143  A    between atoms: _381  and  _382
REMARK  144  A    between atoms: _385  and  _387
REMARK  145  A    between atoms: _387  and  _388
REMARK  146  A    between atoms: _387  and  _390
REMARK  147  A    between atoms: _390  and  _391
REMARK  148  A    between atoms: _391  and  _392
REMARK  149  A    between atoms: _392  and  _393
REMARK  150  A    between atoms: _393  and  _394
REMARK  151  A    between atoms: _398  and  _400
REMARK  152  A    between atoms: _400  and  _401
REMARK  153  A    between atoms: _400  and  _403
REMARK  154  A    between atoms: _403  and  _404
REMARK                            x       y       z     vdW  Elec       q    Type
REMARK                         _______ _______ _______ _____ _____    ______ ____
ROOT
ATOM      1  C   SER A   4       4.484  16.683   0.495  0.00  0.00    +0.243 C 
ATOM      2  N   TYR A   5       5.061  15.595   1.026  0.00  0.00    -0.297 N 
ATOM      3  H   TYR A   5       5.369  15.592   2.019  0.00  0.00    +0.150 HD
ATOM      4  O   SER A   4       4.051  16.710  -0.666  0.00  0.00    -0.273 OA
ENDROOT
BRANCH   2   5
ATOM      5  CA  TYR A   5       5.251  14.405   0.181  0.00  0.00    +0.153 C 
BRANCH   5   6
ATOM      6  C   TYR A   5       3.892  13.730  -0.177  0.00  0.00    +0.241 C 
ATOM      7  N   GLN A   6       2.902  13.887   0.695  0.00  0.00    -0.298 N 
ATOM      8  H   GLN A   6       3.046  14.453   1.556  0.00  0.00    +0.150 HD
ATOM      9  O   TYR A   5       3.733  13.090  -1.226  0.00  0.00    -0.273 OA
BRANCH   7  10
ATOM     10  CA  GLN A   6       1.606  13.256   0.433  0.00  0.00    +0.137 C 
BRANCH  10  11
ATOM     11  C   GLN A   6       0.791  13.915  -0.673  0.00  0.00    +0.227 C 
ATOM     12  O   GLN A   6      -0.016  13.234  -1.308  0.00  0.00    -0.286 OA
ENDBRANCH  10  11
BRANCH  10  13
ATOM     13  CB  GLN A   6       0.774  13.147   1.700  0.00  0.00    +0.037 C 
BRANCH  13  14
ATOM     14  CG  GLN A   6       1.535  12.421   2.791  0.00  0.00    +0.087 C 
BRANCH  14  15
ATOM     15  CD  GLN A   6       0.714  12.239   4.041  0.00  0.00    +0.219 C 
ATOM     16  OE1 GLN A   6       0.937  12.914   5.037  0.00  0.00    -0.275 OA
ATOM     17  NE2 GLN A   6      -0.191  11.259   4.022  0.00  0.00    -0.329 N 
ATOM     18 HE21 GLN A   6      -0.741  11.043   4.878  0.00  0.00    +0.145 HD
ATOM     19 HE22 GLN A   6      -0.346  10.711   3.152  0.00  0.00    +0.145 HD
ENDBRANCH  14  15
ENDBRANCH  13  14
ENDBRANCH  10  13
ENDBRANCH   7  10
ENDBRANCH   5   6
BRANCH   5  20
ATOM     20  CB  TYR A   5       6.204  13.379   0.830  0.00  0.00    +0.055 C 
BRANCH  20  21
ATOM     21  CG  TYR A   5       6.598  12.322  -0.156  0.00  0.00    -0.020 A 
ATOM     22  CD2 TYR A   5       5.994  11.062  -0.145  0.00  0.00    -0.001 A 
ATOM     23  CE2 TYR A   5       6.362  10.083  -1.087  0.00  0.00    +0.036 A 
ATOM     24  CZ  TYR A   5       7.325  10.369  -2.023  0.00  0.00    +0.134 A 
ATOM     25  CE1 TYR A   5       7.912  11.626  -2.079  0.00  0.00    +0.036 A 
ATOM     26  CD1 TYR A   5       7.559  12.588  -1.127  0.00  0.00    -0.001 A 
BRANCH  24  27
ATOM     27  OH  TYR A   5       7.673   9.431  -2.973  0.00  0.00    -0.506 OA
ATOM     28  HH  TYR A   5       8.377   9.804  -3.561  0.00  0.00    +0.292 HD
ENDBRANCH  24  27
ENDBRANCH  20  21
ENDBRANCH   5  20
ENDBRANCH   2   5
BRANCH   1  29
ATOM     29  CA  SER A   4       4.389  17.943   1.362  0.00  0.00    +0.178 C 
BRANCH  29  31
ATOM     30  C   ALA A   3       2.544  17.150   2.828  0.00  0.00    +0.241 C 
ATOM     31  N   SER A   4       3.732  17.722   2.661  0.00  0.00    -0.295 N 
ATOM     32  H   SER A   4       4.237  18.038   3.514  0.00  0.00    +0.150 HD
ATOM     33  O   ALA A   3       1.897  16.621   1.927  0.00  0.00    -0.273 OA
BRANCH  30  34
ATOM     34  CA  ALA A   3       1.970  17.203   4.231  0.00  0.00    +0.149 C 
ATOM     35  CB  ALA A   3       2.343  15.963   4.993  0.00  0.00    +0.031 C 
BRANCH  34  38
ATOM     36  C   THR A   2      -0.227  18.107   4.901  0.00  0.00    +0.243 C 
ATOM     37  O   THR A   2       0.219  18.614   5.926  0.00  0.00    -0.273 OA
ATOM     38  N   ALA A   3       0.500  17.330   4.088  0.00  0.00    -0.297 N 
ATOM     39  H   ALA A   3       0.019  16.800   3.334  0.00  0.00    +0.150 HD
BRANCH  36  40
ATOM     40  CA  THR A   2      -1.706  18.315   4.532  0.00  0.00    +0.176 C 
BRANCH  40  43
ATOM     41  C   ALA A   1      -3.573  18.935   6.038  0.00  0.00    +0.238 C 
ATOM     42  O   ALA A   1      -4.351  18.047   5.606  0.00  0.00    -0.274 OA
ATOM     43  N   THR A   2      -2.343  19.158   5.550  0.00  0.00    -0.295 N 
ATOM     44  H   THR A   2      -1.811  19.974   5.914  0.00  0.00    +0.150 HD
BRANCH  41  45
ATOM     45  CA  ALA A   1      -3.979  19.816   7.220  0.00  0.00    +0.145 C 
ATOM     46  CB  ALA A   1      -3.603  19.136   8.533  0.00  0.00    +0.028 C 
BRANCH  45  47
ATOM     47  N   ALA A   1      -5.422  20.134   7.219  0.00  0.00    -0.238 NA
ATOM     48  H   ALA A   1      -6.122  19.377   7.085  0.00  0.00    +0.142 HD
ENDBRANCH  45  47
ENDBRANCH  41  45
ENDBRANCH  40  43
BRANCH  40  49
ATOM     49  CB  THR A   2      -1.754  18.962   3.147  0.00  0.00    +0.137 C 
ATOM     50  CG2 THR A   2      -3.214  19.128   2.656  0.00  0.00    +0.034 C 
BRANCH  49  51
ATOM     51  OG1 THR A   2      -1.144  20.267   3.202  0.00  0.00    -0.382 OA
ATOM     52  HG1 THR A   2      -1.177  20.683   2.304  0.00  0.00    +0.210 HD
ENDBRANCH  49  51
ENDBRANCH  40  49
ENDBRANCH  36  40
ENDBRANCH  34  38
ENDBRANCH  30  34
ENDBRANCH  29  31
BRANCH  29  53
ATOM     53  CB  SER A   4       5.797  18.500   1.588  0.00  0.00    +0.166 C 
BRANCH  53  54
ATOM     54  OG  SER A   4       6.532  17.687   2.547  0.00  0.00    -0.380 OA
ATOM     55  H   SER A   4       6.607  16.761   2.204  0.00  0.00    +0.211 HD
ENDBRANCH  53  54
ENDBRANCH  29  53
ENDBRANCH   1  29
TORSDOF 22
REMARK  Name = ../refined-set-2016/2j7h/2j7h_pocket.pdb
REMARK  154 active torsions:
REMARK  status: ('A' for Active; 'I' for Inactive)
REMARK    1  A    between atoms: _1  and  _3
REMARK    2  A    between atoms: _3  and  _4
REMARK    3  A    between atoms: _7  and  _9
REMARK    4  A    between atoms: _9  and  _10
REMARK    5  A    between atoms: _9  and  _12
REMARK    6  A    between atoms: _12  and  _13
REMARK    7  A    between atoms: _16  and  _18
REMARK    8  A    between atoms: _18  and  _19
REMARK    9  A    between atoms: _22  and  _24
REMARK   10  A    between atoms: _24  and  _25
REMARK   11  A    between atoms: _24  and  _27
REMARK   12  A    between atoms: _27  and  _28
REMARK   13  A    between atoms: _30  and  _32
REMARK   14  A    between atoms: _32  and  _33
REMARK   15  A    between atoms: _32  and  _35
REMARK   16  A    between atoms: _35  and  _36
REMARK   17  A    between atoms: _41  and  _42
REMARK   18  A    between atoms: _44  and  _46
REMARK   19  A    between atoms: _46  and  _47
REMARK   20  A    between atoms: _46  and  _49
REMARK   21  A    between atoms: _49  and  _50
REMARK   22  A    between atoms: _50  and  _51
REMARK   23  A    between atoms: _56  and  _58
REMARK   24  A    between atoms: _58  and  _59
REMARK   25  A    between atoms: _58  and  _61
REMARK   26  A    between atoms: _61  and  _62
REMARK   27  A    between atoms: _62  and  _63
REMARK   28  A    between atoms: _63  and  _64
REMARK   29  A    between atoms: _73  and  _75
REMARK   30  A    between atoms: _75  and  _76
REMARK   31  A    between atoms: _75  and  _78
REMARK   32  A    between atoms: _78  and  _79
REMARK   33  A    between atoms: _82  and  _84
REMARK   34  A    between atoms: _84  and  _85
REMARK   35  A    between atoms: _84  and  _87
REMARK   36  A    between atoms: _87  and  _88
REMARK   37  A    between atoms: _93  and  _95
REMARK   38  A    between atoms: _95  and  _96
REMARK   39  A    between atoms: _95  and  _98
REMARK   40  A    between atoms: _98  and  _99
REMARK   41  A    between atoms: _109  and  _111
REMARK   42  A    between atoms: _111  and  _112
REMARK   43  A    between atoms: _111  and  _114
REMARK   44  A    between atoms: _114  and  _115
REMARK   45  A    between atoms: _120  and  _122
REMARK   46  A    between atoms: _122  and  _123
REMARK   47  A    between atoms: _122  and  _125
REMARK   48  A    between atoms: _125  and  _126
REMARK   49  A    between atoms: _126  and  _127
REMARK   50  A    between atoms: _130  and  _132
REMARK   51  A    between atoms: _132  and  _133
REMARK   52  A    between atoms: _132  and  _135
REMARK   53  A    between atoms: _138  and  _140
REMARK   54  A    between atoms: _140  and  _141
REMARK   55  A    between atoms: _140  and  _143
REMARK   56  A    between atoms: _143  and  _144
REMARK   57  A    between atoms: _149  and  _151
REMARK   58  A    between atoms: _151  and  _152
REMARK   59  A    between atoms: _151  and  _154
REMARK   60  A    between atoms: _157  and  _159
REMARK   61  A    between atoms: _159  and  _160
REMARK   62  A    between atoms: _159  and  _162
REMARK   63  A    between atoms: _162  and  _163
REMARK   64  A    between atoms: _169  and  _171
REMARK   65  A    between atoms: _171  and  _172
REMARK   66  A    between atoms: _171  and  _174
REMARK   67  A    between atoms: _174  and  _175
REMARK   68  A    between atoms: _180  and  _182
REMARK   69  A    between atoms: _182  and  _183
REMARK   70  A    between atoms: _182  and  _185
REMARK   71  A    between atoms: _185  and  _186
REMARK   72  A    between atoms: _191  and  _193
REMARK   73  A    between atoms: _193  and  _194
REMARK   74  A    between atoms: _193  and  _196
REMARK   75  A    between atoms: _196  and  _197
REMARK   76  A    between atoms: _202  and  _204
REMARK   77  A    between atoms: _204  and  _205
REMARK   78  A    between atoms: _204  and  _207
REMARK   79  A    between atoms: _207  and  _208
REMARK   80  A    between atoms: _213  and  _214
REMARK   81  A    between atoms: _216  and  _218
REMARK   82  A    between atoms: _218  and  _219
REMARK   83  A    between atoms: _218  and  _221
REMARK   84  A    between atoms: _221  and  _222
REMARK   85  A    between atoms: _227  and  _228
REMARK   86  A    between atoms: _230  and  _232
REMARK   87  A    between atoms: _232  and  _233
REMARK   88  A    between atoms: _232  and  _235
REMARK   89  A    between atoms: _235  and  _236
REMARK   90  A    between atoms: _236  and  _237
REMARK   91  A    between atoms: _239  and  _241
REMARK   92  A    between atoms: _241  and  _242
REMARK   93  A    between atoms: _241  and  _244
REMARK   94  A    between atoms: _244  and  _245
REMARK   95  A    between atoms: _255  and  _257
REMARK   96  A    between atoms: _257  and  _258
REMARK   97  A    between atoms: _257  and  _260
REMARK   98  A    between atoms: _260  and  _261
REMARK   99  A    between atoms: _264  and  _266
REMARK  100  A    between atoms: _266  and  _267
REMARK  101  A    between atoms: _266  and  _269
REMARK  102  A    between atoms: _269  and  _270
REMARK  103  A    between atoms: _270  and  _271
REMARK  104  A    between atoms: _274  and  _276
REMARK  105  A    between atoms: _276  and  _277
REMARK  106  A    between atoms: _276  and  _279
REMARK  107  A    between atoms: _279  and  _280
REMARK  108  A    between atoms: _285  and  _287
REMARK  109  A    between atoms: _287  and  _288
REMARK  110  A    between atoms: _290  and  _292
REMARK  111  A    between atoms: _292  and  _293
REMARK  112  A    between atoms: _296  and  _298
REMARK  113  A    between atoms: _298  and  _299
REMARK  114  A    between atoms: _302  and  _304
REMARK  115  A    between atoms: _304  and  _305
REMARK  116  A    between atoms: _304  and  _307
REMARK  117  A    between atoms: _307  and  _308
REMARK  118  A    between atoms: _318  and  _320
REMARK  119  A    between atoms: _320  and  _321
REMARK  120  A    between atoms: _320  and  _323
REMARK  121  A    between atoms: _323  and  _324
REMARK  122  A    between atoms: _326  and  _328
REMARK  123  A    between atoms: _328  and  _329
REMARK  124  A    between atoms: _328  and  _331
REMARK  125  A    between atoms: _331  and  _332
REMARK  126  A    between atoms: _337  and  _339
REMARK  127  A    between atoms: _339  and  _340
REMARK  128  A    between atoms: _339  and  _342
REMARK  129  A    between atoms: _342  and  _343
REMARK  130  A    between atoms: _349  and  _351
REMARK  131  A    between atoms: _351  and  _352
REMARK  132  A    between atoms: _351  and  _354
REMARK  133  A    between atoms: _354  and  _355
REMARK  134  A    between atoms: _355  and  _356
REMARK  135  A    between atoms: _359  and  _361
REMARK  136  A    between atoms: _361  and  _362
REMARK  137  A    between atoms: _361  and  _364
REMARK  138  A    between atoms: _364  and  _365
REMARK  139  A    between atoms: _375  and  _377
REMARK  140  A    between atoms: _377  and  _378
REMARK  141  A    between atoms: _377  and  _380
REMARK  142  A    between atoms: _380  and  _381
REMARK  143  A    between atoms: _381  and  _382
REMARK  144  A    between atoms: _385  and  _387
REMARK  145  A    between atoms: _387  and  _388
REMARK  146  A    between atoms: _387  and  _390
REMARK  147  A    between atoms: _390  and  _391
REMARK  148  A    between atoms: _391  and  _392
REMARK  149  A    between atoms: _392  and  _393
REMARK  150  A    between atoms: _393  and  _394
REMARK  151  A    between atoms: _398  and  _400
REMARK  152  A    between atoms: _400  and  _401
REMARK  153  A    between atoms: _400  and  _403
REMARK  154  A    between atoms: _403  and  _404
REMARK                            x       y       z     vdW  Elec       q    Type
REMARK                         _______ _______ _______ _____ _____    ______ ____
ROOT
ATOM      1  NE  ARG A   1       0.470  19.995  11.425  0.00  0.00    -0.265 N 
ATOM      2  HE  ARG A   1       1.343  20.537  11.589  0.00  0.00    +0.259 HD
ATOM      3  CZ  ARG A   1       0.565  18.668  11.435  0.00  0.00    +0.342 C 
ATOM      4  NH2 ARG A   1       1.776  18.095  11.562  0.00  0.00    -0.292 N 
ATOM      5 HH21 ARG A   1       2.625  18.689  11.651  0.00  0.00    +0.255 HD
ATOM      6 HH22 ARG A   1       1.863  17.059  11.571  0.00  0.00    +0.255 HD
ATOM      7  NH1 ARG A   1      -0.528  17.905  11.347  0.00  0.00    -0.292 N 
ATOM      8 HH11 ARG A   1      -0.441  16.869  11.356  0.00  0.00    +0.255 HD
ATOM      9 HH12 ARG A   1      -1.466  18.347  11.270  0.00  0.00    +0.255 HD
ENDROOT
BRANCH   1  10
ATOM     10  CD  ARG A   1      -0.764  20.758  11.202  0.00  0.00    +0.174 C 
BRANCH  10  11
ATOM     11  CG  ARG A   1      -0.524  21.652   9.982  0.00  0.00    +0.045 C 
BRANCH  11  12
ATOM     12  CB  ARG A   1      -1.765  22.335   9.431  0.00  0.00    +0.029 C 
BRANCH  12  13
ATOM     13  CA  ARG A   1      -1.480  23.332   8.282  0.00  0.00    +0.133 C 
BRANCH  13  14
ATOM     14  N   ARG A   1      -2.713  23.974   7.839  0.00  0.00    -0.239 NA
ATOM     15  H   ARG A   1      -3.604  23.437   7.859  0.00  0.00    +0.142 HD
ENDBRANCH  13  14
BRANCH  13  16
ATOM     16  C   ARG A   1      -0.866  22.607   7.098  0.00  0.00    +0.224 C 
ATOM     17  O   ARG A   1      -1.470  21.682   6.547  0.00  0.00    -0.287 OA
ENDBRANCH  13  16
ENDBRANCH  12  13
ENDBRANCH  11  12
ENDBRANCH  10  11
ENDBRANCH   1  10
TORSDOF 6
REMARK  Name = ../refined-set-2016/2j7h/2j7h_pocket.pdb
REMARK  154 active torsions:
REMARK  status: ('A' for Active; 'I' for Inactive)
REMARK    1  A    between atoms: _1  and  _3
REMARK    2  A    between atoms: _3  and  _4
REMARK    3  A    between atoms: _7  and  _9
REMARK    4  A    between atoms: _9  and  _10
REMARK    5  A    between atoms: _9  and  _12
REMARK    6  A    between atoms: _12  and  _13
REMARK    7  A    between atoms: _16  and  _18
REMARK    8  A    between atoms: _18  and  _19
REMARK    9  A    between atoms: _22  and  _24
REMARK   10  A    between atoms: _24  and  _25
REMARK   11  A    between atoms: _24  and  _27
REMARK   12  A    between atoms: _27  and  _28
REMARK   13  A    between atoms: _30  and  _32
REMARK   14  A    between atoms: _32  and  _33
REMARK   15  A    between atoms: _32  and  _35
REMARK   16  A    between atoms: _35  and  _36
REMARK   17  A    between atoms: _41  and  _42
REMARK   18  A    between atoms: _44  and  _46
REMARK   19  A    between atoms: _46  and  _47
REMARK   20  A    between atoms: _46  and  _49
REMARK   21  A    between atoms: _49  and  _50
REMARK   22  A    between atoms: _50  and  _51
REMARK   23  A    between atoms: _56  and  _58
REMARK   24  A    between atoms: _58  and  _59
REMARK   25  A    between atoms: _58  and  _61
REMARK   26  A    between atoms: _61  and  _62
REMARK   27  A    between atoms: _62  and  _63
REMARK   28  A    between atoms: _63  and  _64
REMARK   29  A    between atoms: _73  and  _75
REMARK   30  A    between atoms: _75  and  _76
REMARK   31  A    between atoms: _75  and  _78
REMARK   32  A    between atoms: _78  and  _79
REMARK   33  A    between atoms: _82  and  _84
REMARK   34  A    between atoms: _84  and  _85
REMARK   35  A    between atoms: _84  and  _87
REMARK   36  A    between atoms: _87  and  _88
REMARK   37  A    between atoms: _93  and  _95
REMARK   38  A    between atoms: _95  and  _96
REMARK   39  A    between atoms: _95  and  _98
REMARK   40  A    between atoms: _98  and  _99
REMARK   41  A    between atoms: _109  and  _111
REMARK   42  A    between atoms: _111  and  _112
REMARK   43  A    between atoms: _111  and  _114
REMARK   44  A    between atoms: _114  and  _115
REMARK   45  A    between atoms: _120  and  _122
REMARK   46  A    between atoms: _122  and  _123
REMARK   47  A    between atoms: _122  and  _125
REMARK   48  A    between atoms: _125  and  _126
REMARK   49  A    between atoms: _126  and  _127
REMARK   50  A    between atoms: _130  and  _132
REMARK   51  A    between atoms: _132  and  _133
REMARK   52  A    between atoms: _132  and  _135
REMARK   53  A    between atoms: _138  and  _140
REMARK   54  A    between atoms: _140  and  _141
REMARK   55  A    between atoms: _140  and  _143
REMARK   56  A    between atoms: _143  and  _144
REMARK   57  A    between atoms: _149  and  _151
REMARK   58  A    between atoms: _151  and  _152
REMARK   59  A    between atoms: _151  and  _154
REMARK   60  A    between atoms: _157  and  _159
REMARK   61  A    between atoms: _159  and  _160
REMARK   62  A    between atoms: _159  and  _162
REMARK   63  A    between atoms: _162  and  _163
REMARK   64  A    between atoms: _169  and  _171
REMARK   65  A    between atoms: _171  and  _172
REMARK   66  A    between atoms: _171  and  _174
REMARK   67  A    between atoms: _174  and  _175
REMARK   68  A    between atoms: _180  and  _182
REMARK   69  A    between atoms: _182  and  _183
REMARK   70  A    between atoms: _182  and  _185
REMARK   71  A    between atoms: _185  and  _186
REMARK   72  A    between atoms: _191  and  _193
REMARK   73  A    between atoms: _193  and  _194
REMARK   74  A    between atoms: _193  and  _196
REMARK   75  A    between atoms: _196  and  _197
REMARK   76  A    between atoms: _202  and  _204
REMARK   77  A    between atoms: _204  and  _205
REMARK   78  A    between atoms: _204  and  _207
REMARK   79  A    between atoms: _207  and  _208
REMARK   80  A    between atoms: _213  and  _214
REMARK   81  A    between atoms: _216  and  _218
REMARK   82  A    between atoms: _218  and  _219
REMARK   83  A    between atoms: _218  and  _221
REMARK   84  A    between atoms: _221  and  _222
REMARK   85  A    between atoms: _227  and  _228
REMARK   86  A    between atoms: _230  and  _232
REMARK   87  A    between atoms: _232  and  _233
REMARK   88  A    between atoms: _232  and  _235
REMARK   89  A    between atoms: _235  and  _236
REMARK   90  A    between atoms: _236  and  _237
REMARK   91  A    between atoms: _239  and  _241
REMARK   92  A    between atoms: _241  and  _242
REMARK   93  A    between atoms: _241  and  _244
REMARK   94  A    between atoms: _244  and  _245
REMARK   95  A    between atoms: _255  and  _257
REMARK   96  A    between atoms: _257  and  _258
REMARK   97  A    between atoms: _257  and  _260
REMARK   98  A    between atoms: _260  and  _261
REMARK   99  A    between atoms: _264  and  _266
REMARK  100  A    between atoms: _266  and  _267
REMARK  101  A    between atoms: _266  and  _269
REMARK  102  A    between atoms: _269  and  _270
REMARK  103  A    between atoms: _270  and  _271
REMARK  104  A    between atoms: _274  and  _276
REMARK  105  A    between atoms: _276  and  _277
REMARK  106  A    between atoms: _276  and  _279
REMARK  107  A    between atoms: _279  and  _280
REMARK  108  A    between atoms: _285  and  _287
REMARK  109  A    between atoms: _287  and  _288
REMARK  110  A    between atoms: _290  and  _292
REMARK  111  A    between atoms: _292  and  _293
REMARK  112  A    between atoms: _296  and  _298
REMARK  113  A    between atoms: _298  and  _299
REMARK  114  A    between atoms: _302  and  _304
REMARK  115  A    between atoms: _304  and  _305
REMARK  116  A    between atoms: _304  and  _307
REMARK  117  A    between atoms: _307  and  _308
REMARK  118  A    between atoms: _318  and  _320
REMARK  119  A    between atoms: _320  and  _321
REMARK  120  A    between atoms: _320  and  _323
REMARK  121  A    between atoms: _323  and  _324
REMARK  122  A    between atoms: _326  and  _328
REMARK  123  A    between atoms: _328  and  _329
REMARK  124  A    between atoms: _328  and  _331
REMARK  125  A    between atoms: _331  and  _332
REMARK  126  A    between atoms: _337  and  _339
REMARK  127  A    between atoms: _339  and  _340
REMARK  128  A    between atoms: _339  and  _342
REMARK  129  A    between atoms: _342  and  _343
REMARK  130  A    between atoms: _349  and  _351
REMARK  131  A    between atoms: _351  and  _352
REMARK  132  A    between atoms: _351  and  _354
REMARK  133  A    between atoms: _354  and  _355
REMARK  134  A    between atoms: _355  and  _356
REMARK  135  A    between atoms: _359  and  _361
REMARK  136  A    between atoms: _361  and  _362
REMARK  137  A    between atoms: _361  and  _364
REMARK  138  A    between atoms: _364  and  _365
REMARK  139  A    between atoms: _375  and  _377
REMARK  140  A    between atoms: _377  and  _378
REMARK  141  A    between atoms: _377  and  _380
REMARK  142  A    between atoms: _380  and  _381
REMARK  143  A    between atoms: _381  and  _382
REMARK  144  A    between atoms: _385  and  _387
REMARK  145  A    between atoms: _387  and  _388
REMARK  146  A    between atoms: _387  and  _390
REMARK  147  A    between atoms: _390  and  _391
REMARK  148  A    between atoms: _391  and  _392
REMARK  149  A    between atoms: _392  and  _393
REMARK  150  A    between atoms: _393  and  _394
REMARK  151  A    between atoms: _398  and  _400
REMARK  152  A    between atoms: _400  and  _401
REMARK  153  A    between atoms: _400  and  _403
REMARK  154  A    between atoms: _403  and  _404
REMARK                            x       y       z     vdW  Elec       q    Type
REMARK                         _______ _______ _______ _____ _____    ______ ____
ROOT
ATOM      1  CA  THR A   1       5.227  21.816   9.904  0.00  0.00    +0.160 C 
ENDROOT
BRANCH   1   2
ATOM      2  N   THR A   1       4.504  22.983   9.355  0.00  0.00    -0.237 NA
ATOM      3  H   THR A   1       3.886  22.843   8.530  0.00  0.00    +0.142 HD
ENDBRANCH   1   2
BRANCH   1   4
ATOM      4  CB  THR A   1       4.484  20.509   9.636  0.00  0.00    +0.134 C 
ATOM      5  CG2 THR A   1       5.164  19.348  10.341  0.00  0.00    +0.034 C 
BRANCH   4   6
ATOM      6  OG1 THR A   1       3.140  20.645  10.109  0.00  0.00    -0.383 OA
ATOM      7  HG1 THR A   1       2.646  19.804   9.942  0.00  0.00    +0.210 HD
ENDBRANCH   4   6
ENDBRANCH   1   4
BRANCH   1   8
ATOM      8  C   THR A   1       6.585  21.754   9.245  0.00  0.00    +0.227 C 
ATOM      9  O   THR A   1       6.713  21.609   8.021  0.00  0.00    -0.287 OA
ENDBRANCH   1   8
TORSDOF 4
REMARK  Name = ../refined-set-2016/2j7h/2j7h_pocket.pdb
REMARK  154 active torsions:
REMARK  status: ('A' for Active; 'I' for Inactive)
REMARK    1  A    between atoms: _1  and  _3
REMARK    2  A    between atoms: _3  and  _4
REMARK    3  A    between atoms: _7  and  _9
REMARK    4  A    between atoms: _9  and  _10
REMARK    5  A    between atoms: _9  and  _12
REMARK    6  A    between atoms: _12  and  _13
REMARK    7  A    between atoms: _16  and  _18
REMARK    8  A    between atoms: _18  and  _19
REMARK    9  A    between atoms: _22  and  _24
REMARK   10  A    between atoms: _24  and  _25
REMARK   11  A    between atoms: _24  and  _27
REMARK   12  A    between atoms: _27  and  _28
REMARK   13  A    between atoms: _30  and  _32
REMARK   14  A    between atoms: _32  and  _33
REMARK   15  A    between atoms: _32  and  _35
REMARK   16  A    between atoms: _35  and  _36
REMARK   17  A    between atoms: _41  and  _42
REMARK   18  A    between atoms: _44  and  _46
REMARK   19  A    between atoms: _46  and  _47
REMARK   20  A    between atoms: _46  and  _49
REMARK   21  A    between atoms: _49  and  _50
REMARK   22  A    between atoms: _50  and  _51
REMARK   23  A    between atoms: _56  and  _58
REMARK   24  A    between atoms: _58  and  _59
REMARK   25  A    between atoms: _58  and  _61
REMARK   26  A    between atoms: _61  and  _62
REMARK   27  A    between atoms: _62  and  _63
REMARK   28  A    between atoms: _63  and  _64
REMARK   29  A    between atoms: _73  and  _75
REMARK   30  A    between atoms: _75  and  _76
REMARK   31  A    between atoms: _75  and  _78
REMARK   32  A    between atoms: _78  and  _79
REMARK   33  A    between atoms: _82  and  _84
REMARK   34  A    between atoms: _84  and  _85
REMARK   35  A    between atoms: _84  and  _87
REMARK   36  A    between atoms: _87  and  _88
REMARK   37  A    between atoms: _93  and  _95
REMARK   38  A    between atoms: _95  and  _96
REMARK   39  A    between atoms: _95  and  _98
REMARK   40  A    between atoms: _98  and  _99
REMARK   41  A    between atoms: _109  and  _111
REMARK   42  A    between atoms: _111  and  _112
REMARK   43  A    between atoms: _111  and  _114
REMARK   44  A    between atoms: _114  and  _115
REMARK   45  A    between atoms: _120  and  _122
REMARK   46  A    between atoms: _122  and  _123
REMARK   47  A    between atoms: _122  and  _125
REMARK   48  A    between atoms: _125  and  _126
REMARK   49  A    between atoms: _126  and  _127
REMARK   50  A    between atoms: _130  and  _132
REMARK   51  A    between atoms: _132  and  _133
REMARK   52  A    between atoms: _132  and  _135
REMARK   53  A    between atoms: _138  and  _140
REMARK   54  A    between atoms: _140  and  _141
REMARK   55  A    between atoms: _140  and  _143
REMARK   56  A    between atoms: _143  and  _144
REMARK   57  A    between atoms: _149  and  _151
REMARK   58  A    between atoms: _151  and  _152
REMARK   59  A    between atoms: _151  and  _154
REMARK   60  A    between atoms: _157  and  _159
REMARK   61  A    between atoms: _159  and  _160
REMARK   62  A    between atoms: _159  and  _162
REMARK   63  A    between atoms: _162  and  _163
REMARK   64  A    between atoms: _169  and  _171
REMARK   65  A    between atoms: _171  and  _172
REMARK   66  A    between atoms: _171  and  _174
REMARK   67  A    between atoms: _174  and  _175
REMARK   68  A    between atoms: _180  and  _182
REMARK   69  A    between atoms: _182  and  _183
REMARK   70  A    between atoms: _182  and  _185
REMARK   71  A    between atoms: _185  and  _186
REMARK   72  A    between atoms: _191  and  _193
REMARK   73  A    between atoms: _193  and  _194
REMARK   74  A    between atoms: _193  and  _196
REMARK   75  A    between atoms: _196  and  _197
REMARK   76  A    between atoms: _202  and  _204
REMARK   77  A    between atoms: _204  and  _205
REMARK   78  A    between atoms: _204  and  _207
REMARK   79  A    between atoms: _207  and  _208
REMARK   80  A    between atoms: _213  and  _214
REMARK   81  A    between atoms: _216  and  _218
REMARK   82  A    between atoms: _218  and  _219
REMARK   83  A    between atoms: _218  and  _221
REMARK   84  A    between atoms: _221  and  _222
REMARK   85  A    between atoms: _227  and  _228
REMARK   86  A    between atoms: _230  and  _232
REMARK   87  A    between atoms: _232  and  _233
REMARK   88  A    between atoms: _232  and  _235
REMARK   89  A    between atoms: _235  and  _236
REMARK   90  A    between atoms: _236  and  _237
REMARK   91  A    between atoms: _239  and  _241
REMARK   92  A    between atoms: _241  and  _242
REMARK   93  A    between atoms: _241  and  _244
REMARK   94  A    between atoms: _244  and  _245
REMARK   95  A    between atoms: _255  and  _257
REMARK   96  A    between atoms: _257  and  _258
REMARK   97  A    between atoms: _257  and  _260
REMARK   98  A    between atoms: _260  and  _261
REMARK   99  A    between atoms: _264  and  _266
REMARK  100  A    between atoms: _266  and  _267
REMARK  101  A    between atoms: _266  and  _269
REMARK  102  A    between atoms: _269  and  _270
REMARK  103  A    between atoms: _270  and  _271
REMARK  104  A    between atoms: _274  and  _276
REMARK  105  A    between atoms: _276  and  _277
REMARK  106  A    between atoms: _276  and  _279
REMARK  107  A    between atoms: _279  and  _280
REMARK  108  A    between atoms: _285  and  _287
REMARK  109  A    between atoms: _287  and  _288
REMARK  110  A    between atoms: _290  and  _292
REMARK  111  A    between atoms: _292  and  _293
REMARK  112  A    between atoms: _296  and  _298
REMARK  113  A    between atoms: _298  and  _299
REMARK  114  A    between atoms: _302  and  _304
REMARK  115  A    between atoms: _304  and  _305
REMARK  116  A    between atoms: _304  and  _307
REMARK  117  A    between atoms: _307  and  _308
REMARK  118  A    between atoms: _318  and  _320
REMARK  119  A    between atoms: _320  and  _321
REMARK  120  A    between atoms: _320  and  _323
REMARK  121  A    between atoms: _323  and  _324
REMARK  122  A    between atoms: _326  and  _328
REMARK  123  A    between atoms: _328  and  _329
REMARK  124  A    between atoms: _328  and  _331
REMARK  125  A    between atoms: _331  and  _332
REMARK  126  A    between atoms: _337  and  _339
REMARK  127  A    between atoms: _339  and  _340
REMARK  128  A    between atoms: _339  and  _342
REMARK  129  A    between atoms: _342  and  _343
REMARK  130  A    between atoms: _349  and  _351
REMARK  131  A    between atoms: _351  and  _352
REMARK  132  A    between atoms: _351  and  _354
REMARK  133  A    between atoms: _354  and  _355
REMARK  134  A    between atoms: _355  and  _356
REMARK  135  A    between atoms: _359  and  _361
REMARK  136  A    between atoms: _361  and  _362
REMARK  137  A    between atoms: _361  and  _364
REMARK  138  A    between atoms: _364  and  _365
REMARK  139  A    between atoms: _375  and  _377
REMARK  140  A    between atoms: _377  and  _378
REMARK  141  A    between atoms: _377  and  _380
REMARK  142  A    between atoms: _380  and  _381
REMARK  143  A    between atoms: _381  and  _382
REMARK  144  A    between atoms: _385  and  _387
REMARK  145  A    between atoms: _387  and  _388
REMARK  146  A    between atoms: _387  and  _390
REMARK  147  A    between atoms: _390  and  _391
REMARK  148  A    between atoms: _391  and  _392
REMARK  149  A    between atoms: _392  and  _393
REMARK  150  A    between atoms: _393  and  _394
REMARK  151  A    between atoms: _398  and  _400
REMARK  152  A    between atoms: _400  and  _401
REMARK  153  A    between atoms: _400  and  _403
REMARK  154  A    between atoms: _403  and  _404
REMARK                            x       y       z     vdW  Elec       q    Type
REMARK                         _______ _______ _______ _____ _____    ______ ____
ROOT
ATOM      1  CA  TRP A   2       9.029  12.869   7.328  0.00  0.00    +0.141 C 
ENDROOT
BRANCH   1   3
ATOM      2  C   HIS A   1       7.315  14.681   7.290  0.00  0.00    +0.239 C 
ATOM      3  N   TRP A   2       8.530  14.216   7.677  0.00  0.00    -0.298 N 
ATOM      4  H   TRP A   2       9.139  14.837   8.247  0.00  0.00    +0.150 HD
ATOM      5  O   HIS A   1       6.706  14.269   6.289  0.00  0.00    -0.274 OA
BRANCH   2   6
ATOM      6  CA  HIS A   1       6.745  15.836   8.140  0.00  0.00    +0.151 C 
BRANCH   6   7
ATOM      7  N   HIS A   1       7.762  16.885   8.223  0.00  0.00    -0.238 NA
ATOM      8  H   HIS A   1       8.113  17.323   7.347  0.00  0.00    +0.142 HD
ENDBRANCH   6   7
BRANCH   6   9
ATOM      9  CB  HIS A   1       5.453  16.420   7.541  0.00  0.00    +0.074 C 
BRANCH   9  10
ATOM     10  CG  HIS A   1       4.197  15.663   7.895  0.00  0.00    +0.082 A 
ATOM     11  ND1 HIS A   1       3.072  16.294   8.386  0.00  0.00    -0.227 NA
ATOM     12  CE1 HIS A   1       2.106  15.397   8.562  0.00  0.00    +0.199 A 
ATOM     13  NE2 HIS A   1       2.556  14.210   8.171  0.00  0.00    -0.221 NA
ATOM     14  CD2 HIS A   1       3.866  14.352   7.755  0.00  0.00    +0.115 A 
ENDBRANCH   9  10
ENDBRANCH   6   9
ENDBRANCH   2   6
ENDBRANCH   1   3
BRANCH   1  15
ATOM     15  C   TRP A   2       9.853  12.729   6.039  0.00  0.00    +0.227 C 
ATOM     16  O   TRP A   2      10.484  11.677   5.821  0.00  0.00    -0.286 OA
ENDBRANCH   1  15
BRANCH   1  17
ATOM     17  CB  TRP A   2       7.897  11.847   7.263  0.00  0.00    +0.056 C 
BRANCH  17  18
ATOM     18  CG  TRP A   2       6.994  11.725   8.477  0.00  0.00    -0.002 A 
ATOM     19  CD1 TRP A   2       7.035  12.443   9.662  0.00  0.00    +0.068 A 
ATOM     20  NE1 TRP A   2       6.016  12.021  10.499  0.00  0.00    -0.352 N 
ATOM     21  HE1 TRP A   2       5.827  12.381  11.456  0.00  0.00    +0.166 HD
ATOM     22  CE2 TRP A   2       5.299  11.048   9.852  0.00  0.00    +0.056 A 
ATOM     23  CZ2 TRP A   2       4.177  10.330  10.271  0.00  0.00    +0.017 A 
ATOM     24  CH2 TRP A   2       3.645   9.412   9.390  0.00  0.00    +0.001 A 
ATOM     25  CZ3 TRP A   2       4.224   9.195   8.122  0.00  0.00    +0.000 A 
ATOM     26  CE3 TRP A   2       5.332   9.895   7.709  0.00  0.00    +0.001 A 
ATOM     27  CD2 TRP A   2       5.882  10.859   8.573  0.00  0.00    +0.013 A 
ENDBRANCH  17  18
ENDBRANCH   1  17
TORSDOF 8
REMARK  Name = ../refined-set-2016/2j7h/2j7h_pocket.pdb
REMARK  154 active torsions:
REMARK  status: ('A' for Active; 'I' for Inactive)
REMARK    1  A    between atoms: _1  and  _3
REMARK    2  A    between atoms: _3  and  _4
REMARK    3  A    between atoms: _7  and  _9
REMARK    4  A    between atoms: _9  and  _10
REMARK    5  A    between atoms: _9  and  _12
REMARK    6  A    between atoms: _12  and  _13
REMARK    7  A    between atoms: _16  and  _18
REMARK    8  A    between atoms: _18  and  _19
REMARK    9  A    between atoms: _22  and  _24
REMARK   10  A    between atoms: _24  and  _25
REMARK   11  A    between atoms: _24  and  _27
REMARK   12  A    between atoms: _27  and  _28
REMARK   13  A    between atoms: _30  and  _32
REMARK   14  A    between atoms: _32  and  _33
REMARK   15  A    between atoms: _32  and  _35
REMARK   16  A    between atoms: _35  and  _36
REMARK   17  A    between atoms: _41  and  _42
REMARK   18  A    between atoms: _44  and  _46
REMARK   19  A    between atoms: _46  and  _47
REMARK   20  A    between atoms: _46  and  _49
REMARK   21  A    between atoms: _49  and  _50
REMARK   22  A    between atoms: _50  and  _51
REMARK   23  A    between atoms: _56  and  _58
REMARK   24  A    between atoms: _58  and  _59
REMARK   25  A    between atoms: _58  and  _61
REMARK   26  A    between atoms: _61  and  _62
REMARK   27  A    between atoms: _62  and  _63
REMARK   28  A    between atoms: _63  and  _64
REMARK   29  A    between atoms: _73  and  _75
REMARK   30  A    between atoms: _75  and  _76
REMARK   31  A    between atoms: _75  and  _78
REMARK   32  A    between atoms: _78  and  _79
REMARK   33  A    between atoms: _82  and  _84
REMARK   34  A    between atoms: _84  and  _85
REMARK   35  A    between atoms: _84  and  _87
REMARK   36  A    between atoms: _87  and  _88
REMARK   37  A    between atoms: _93  and  _95
REMARK   38  A    between atoms: _95  and  _96
REMARK   39  A    between atoms: _95  and  _98
REMARK   40  A    between atoms: _98  and  _99
REMARK   41  A    between atoms: _109  and  _111
REMARK   42  A    between atoms: _111  and  _112
REMARK   43  A    between atoms: _111  and  _114
REMARK   44  A    between atoms: _114  and  _115
REMARK   45  A    between atoms: _120  and  _122
REMARK   46  A    between atoms: _122  and  _123
REMARK   47  A    between atoms: _122  and  _125
REMARK   48  A    between atoms: _125  and  _126
REMARK   49  A    between atoms: _126  and  _127
REMARK   50  A    between atoms: _130  and  _132
REMARK   51  A    between atoms: _132  and  _133
REMARK   52  A    between atoms: _132  and  _135
REMARK   53  A    between atoms: _138  and  _140
REMARK   54  A    between atoms: _140  and  _141
REMARK   55  A    between atoms: _140  and  _143
REMARK   56  A    between atoms: _143  and  _144
REMARK   57  A    between atoms: _149  and  _151
REMARK   58  A    between atoms: _151  and  _152
REMARK   59  A    between atoms: _151  and  _154
REMARK   60  A    between atoms: _157  and  _159
REMARK   61  A    between atoms: _159  and  _160
REMARK   62  A    between atoms: _159  and  _162
REMARK   63  A    between atoms: _162  and  _163
REMARK   64  A    between atoms: _169  and  _171
REMARK   65  A    between atoms: _171  and  _172
REMARK   66  A    between atoms: _171  and  _174
REMARK   67  A    between atoms: _174  and  _175
REMARK   68  A    between atoms: _180  and  _182
REMARK   69  A    between atoms: _182  and  _183
REMARK   70  A    between atoms: _182  and  _185
REMARK   71  A    between atoms: _185  and  _186
REMARK   72  A    between atoms: _191  and  _193
REMARK   73  A    between atoms: _193  and  _194
REMARK   74  A    between atoms: _193  and  _196
REMARK   75  A    between atoms: _196  and  _197
REMARK   76  A    between atoms: _202  and  _204
REMARK   77  A    between atoms: _204  and  _205
REMARK   78  A    between atoms: _204  and  _207
REMARK   79  A    between atoms: _207  and  _208
REMARK   80  A    between atoms: _213  and  _214
REMARK   81  A    between atoms: _216  and  _218
REMARK   82  A    between atoms: _218  and  _219
REMARK   83  A    between atoms: _218  and  _221
REMARK   84  A    between atoms: _221  and  _222
REMARK   85  A    between atoms: _227  and  _228
REMARK   86  A    between atoms: _230  and  _232
REMARK   87  A    between atoms: _232  and  _233
REMARK   88  A    between atoms: _232  and  _235
REMARK   89  A    between atoms: _235  and  _236
REMARK   90  A    between atoms: _236  and  _237
REMARK   91  A    between atoms: _239  and  _241
REMARK   92  A    between atoms: _241  and  _242
REMARK   93  A    between atoms: _241  and  _244
REMARK   94  A    between atoms: _244  and  _245
REMARK   95  A    between atoms: _255  and  _257
REMARK   96  A    between atoms: _257  and  _258
REMARK   97  A    between atoms: _257  and  _260
REMARK   98  A    between atoms: _260  and  _261
REMARK   99  A    between atoms: _264  and  _266
REMARK  100  A    between atoms: _266  and  _267
REMARK  101  A    between atoms: _266  and  _269
REMARK  102  A    between atoms: _269  and  _270
REMARK  103  A    between atoms: _270  and  _271
REMARK  104  A    between atoms: _274  and  _276
REMARK  105  A    between atoms: _276  and  _277
REMARK  106  A    between atoms: _276  and  _279
REMARK  107  A    between atoms: _279  and  _280
REMARK  108  A    between atoms: _285  and  _287
REMARK  109  A    between atoms: _287  and  _288
REMARK  110  A    between atoms: _290  and  _292
REMARK  111  A    between atoms: _292  and  _293
REMARK  112  A    between atoms: _296  and  _298
REMARK  113  A    between atoms: _298  and  _299
REMARK  114  A    between atoms: _302  and  _304
REMARK  115  A    between atoms: _304  and  _305
REMARK  116  A    between atoms: _304  and  _307
REMARK  117  A    between atoms: _307  and  _308
REMARK  118  A    between atoms: _318  and  _320
REMARK  119  A    between atoms: _320  and  _321
REMARK  120  A    between atoms: _320  and  _323
REMARK  121  A    between atoms: _323  and  _324
REMARK  122  A    between atoms: _326  and  _328
REMARK  123  A    between atoms: _328  and  _329
REMARK  124  A    between atoms: _328  and  _331
REMARK  125  A    between atoms: _331  and  _332
REMARK  126  A    between atoms: _337  and  _339
REMARK  127  A    between atoms: _339  and  _340
REMARK  128  A    between atoms: _339  and  _342
REMARK  129  A    between atoms: _342  and  _343
REMARK  130  A    between atoms: _349  and  _351
REMARK  131  A    between atoms: _351  and  _352
REMARK  132  A    between atoms: _351  and  _354
REMARK  133  A    between atoms: _354  and  _355
REMARK  134  A    between atoms: _355  and  _356
REMARK  135  A    between atoms: _359  and  _361
REMARK  136  A    between atoms: _361  and  _362
REMARK  137  A    between atoms: _361  and  _364
REMARK  138  A    between atoms: _364  and  _365
REMARK  139  A    between atoms: _375  and  _377
REMARK  140  A    between atoms: _377  and  _378
REMARK  141  A    between atoms: _377  and  _380
REMARK  142  A    between atoms: _380  and  _381
REMARK  143  A    between atoms: _381  and  _382
REMARK  144  A    between atoms: _385  and  _387
REMARK  145  A    between atoms: _387  and  _388
REMARK  146  A    between atoms: _387  and  _390
REMARK  147  A    between atoms: _390  and  _391
REMARK  148  A    between atoms: _391  and  _392
REMARK  149  A    between atoms: _392  and  _393
REMARK  150  A    between atoms: _393  and  _394
REMARK  151  A    between atoms: _398  and  _400
REMARK  152  A    between atoms: _400  and  _401
REMARK  153  A    between atoms: _400  and  _403
REMARK  154  A    between atoms: _403  and  _404
REMARK                            x       y       z     vdW  Elec       q    Type
REMARK                         _______ _______ _______ _____ _____    ______ ____
ROOT
ATOM      1  C   ASN A   1       5.390  14.311  13.506  0.00  0.00    +0.239 C 
ATOM      2  N   GLU A   2       4.690  13.899  14.567  0.00  0.00    -0.298 N 
ATOM      3  H   GLU A   2       4.116  14.606  15.070  0.00  0.00    +0.150 HD
ATOM      4  O   ASN A   1       6.145  13.588  12.863  0.00  0.00    -0.274 OA
ENDROOT
BRANCH   1   5
ATOM      5  CA  ASN A   1       5.141  15.739  13.061  0.00  0.00    +0.154 C 
BRANCH   5   6
ATOM      6  N   ASN A   1       6.371  16.551  13.077  0.00  0.00    -0.238 NA
ATOM      7  H   ASN A   1       6.992  16.548  12.242  0.00  0.00    +0.142 HD
ENDBRANCH   5   6
BRANCH   5   8
ATOM      8  CB  ASN A   1       4.507  15.688  11.668  0.00  0.00    +0.111 C 
BRANCH   8   9
ATOM      9  CG  ASN A   1       3.248  14.867  11.645  0.00  0.00    +0.221 C 
ATOM     10  OD1 ASN A   1       2.206  15.318  12.116  0.00  0.00    -0.275 OA
ATOM     11  ND2 ASN A   1       3.347  13.630  11.153  0.00  0.00    -0.329 N 
ATOM     12 HD21 ASN A   1       2.519  13.001  11.157  0.00  0.00    +0.145 HD
ATOM     13 HD22 ASN A   1       4.252  13.295  10.765  0.00  0.00    +0.145 HD
ENDBRANCH   8   9
ENDBRANCH   5   8
ENDBRANCH   1   5
BRANCH   2  14
ATOM     14  CA  GLU A   2       4.672  12.517  15.077  0.00  0.00    +0.137 C 
BRANCH  14  15
ATOM     15  C   GLU A   2       6.071  11.896  15.211  0.00  0.00    +0.227 C 
ATOM     16  O   GLU A   2       6.359  10.877  14.555  0.00  0.00    -0.286 OA
ENDBRANCH  14  15
BRANCH  14  17
ATOM     17  CB  GLU A   2       3.764  11.619  14.234  0.00  0.00    +0.039 C 
BRANCH  17  18
ATOM     18  CG  GLU A   2       2.302  12.143  14.176  0.00  0.00    +0.116 C 
BRANCH  18  19
ATOM     19  CD  GLU A   2       1.369  11.307  13.308  0.00  0.00    +0.365 C 
ATOM     20  OE2 GLU A   2       0.138  11.543  13.387  0.00  0.00    -0.246 OA
ATOM     21  OE1 GLU A   2       1.835  10.399  12.571  0.00  0.00    -0.246 OA
ENDBRANCH  18  19
ENDBRANCH  17  18
ENDBRANCH  14  17
ENDBRANCH   2  14
TORSDOF 9
REMARK  Name = ../refined-set-2016/2j7h/2j7h_pocket.pdb
REMARK  154 active torsions:
REMARK  status: ('A' for Active; 'I' for Inactive)
REMARK    1  A    between atoms: _1  and  _3
REMARK    2  A    between atoms: _3  and  _4
REMARK    3  A    between atoms: _7  and  _9
REMARK    4  A    between atoms: _9  and  _10
REMARK    5  A    between atoms: _9  and  _12
REMARK    6  A    between atoms: _12  and  _13
REMARK    7  A    between atoms: _16  and  _18
REMARK    8  A    between atoms: _18  and  _19
REMARK    9  A    between atoms: _22  and  _24
REMARK   10  A    between atoms: _24  and  _25
REMARK   11  A    between atoms: _24  and  _27
REMARK   12  A    between atoms: _27  and  _28
REMARK   13  A    between atoms: _30  and  _32
REMARK   14  A    between atoms: _32  and  _33
REMARK   15  A    between atoms: _32  and  _35
REMARK   16  A    between atoms: _35  and  _36
REMARK   17  A    between atoms: _41  and  _42
REMARK   18  A    between atoms: _44  and  _46
REMARK   19  A    between atoms: _46  and  _47
REMARK   20  A    between atoms: _46  and  _49
REMARK   21  A    between atoms: _49  and  _50
REMARK   22  A    between atoms: _50  and  _51
REMARK   23  A    between atoms: _56  and  _58
REMARK   24  A    between atoms: _58  and  _59
REMARK   25  A    between atoms: _58  and  _61
REMARK   26  A    between atoms: _61  and  _62
REMARK   27  A    between atoms: _62  and  _63
REMARK   28  A    between atoms: _63  and  _64
REMARK   29  A    between atoms: _73  and  _75
REMARK   30  A    between atoms: _75  and  _76
REMARK   31  A    between atoms: _75  and  _78
REMARK   32  A    between atoms: _78  and  _79
REMARK   33  A    between atoms: _82  and  _84
REMARK   34  A    between atoms: _84  and  _85
REMARK   35  A    between atoms: _84  and  _87
REMARK   36  A    between atoms: _87  and  _88
REMARK   37  A    between atoms: _93  and  _95
REMARK   38  A    between atoms: _95  and  _96
REMARK   39  A    between atoms: _95  and  _98
REMARK   40  A    between atoms: _98  and  _99
REMARK   41  A    between atoms: _109  and  _111
REMARK   42  A    between atoms: _111  and  _112
REMARK   43  A    between atoms: _111  and  _114
REMARK   44  A    between atoms: _114  and  _115
REMARK   45  A    between atoms: _120  and  _122
REMARK   46  A    between atoms: _122  and  _123
REMARK   47  A    between atoms: _122  and  _125
REMARK   48  A    between atoms: _125  and  _126
REMARK   49  A    between atoms: _126  and  _127
REMARK   50  A    between atoms: _130  and  _132
REMARK   51  A    between atoms: _132  and  _133
REMARK   52  A    between atoms: _132  and  _135
REMARK   53  A    between atoms: _138  and  _140
REMARK   54  A    between atoms: _140  and  _141
REMARK   55  A    between atoms: _140  and  _143
REMARK   56  A    between atoms: _143  and  _144
REMARK   57  A    between atoms: _149  and  _151
REMARK   58  A    between atoms: _151  and  _152
REMARK   59  A    between atoms: _151  and  _154
REMARK   60  A    between atoms: _157  and  _159
REMARK   61  A    between atoms: _159  and  _160
REMARK   62  A    between atoms: _159  and  _162
REMARK   63  A    between atoms: _162  and  _163
REMARK   64  A    between atoms: _169  and  _171
REMARK   65  A    between atoms: _171  and  _172
REMARK   66  A    between atoms: _171  and  _174
REMARK   67  A    between atoms: _174  and  _175
REMARK   68  A    between atoms: _180  and  _182
REMARK   69  A    between atoms: _182  and  _183
REMARK   70  A    between atoms: _182  and  _185
REMARK   71  A    between atoms: _185  and  _186
REMARK   72  A    between atoms: _191  and  _193
REMARK   73  A    between atoms: _193  and  _194
REMARK   74  A    between atoms: _193  and  _196
REMARK   75  A    between atoms: _196  and  _197
REMARK   76  A    between atoms: _202  and  _204
REMARK   77  A    between atoms: _204  and  _205
REMARK   78  A    between atoms: _204  and  _207
REMARK   79  A    between atoms: _207  and  _208
REMARK   80  A    between atoms: _213  and  _214
REMARK   81  A    between atoms: _216  and  _218
REMARK   82  A    between atoms: _218  and  _219
REMARK   83  A    between atoms: _218  and  _221
REMARK   84  A    between atoms: _221  and  _222
REMARK   85  A    between atoms: _227  and  _228
REMARK   86  A    between atoms: _230  and  _232
REMARK   87  A    between atoms: _232  and  _233
REMARK   88  A    between atoms: _232  and  _235
REMARK   89  A    between atoms: _235  and  _236
REMARK   90  A    between atoms: _236  and  _237
REMARK   91  A    between atoms: _239  and  _241
REMARK   92  A    between atoms: _241  and  _242
REMARK   93  A    between atoms: _241  and  _244
REMARK   94  A    between atoms: _244  and  _245
REMARK   95  A    between atoms: _255  and  _257
REMARK   96  A    between atoms: _257  and  _258
REMARK   97  A    between atoms: _257  and  _260
REMARK   98  A    between atoms: _260  and  _261
REMARK   99  A    between atoms: _264  and  _266
REMARK  100  A    between atoms: _266  and  _267
REMARK  101  A    between atoms: _266  and  _269
REMARK  102  A    between atoms: _269  and  _270
REMARK  103  A    between atoms: _270  and  _271
REMARK  104  A    between atoms: _274  and  _276
REMARK  105  A    between atoms: _276  and  _277
REMARK  106  A    between atoms: _276  and  _279
REMARK  107  A    between atoms: _279  and  _280
REMARK  108  A    between atoms: _285  and  _287
REMARK  109  A    between atoms: _287  and  _288
REMARK  110  A    between atoms: _290  and  _292
REMARK  111  A    between atoms: _292  and  _293
REMARK  112  A    between atoms: _296  and  _298
REMARK  113  A    between atoms: _298  and  _299
REMARK  114  A    between atoms: _302  and  _304
REMARK  115  A    between atoms: _304  and  _305
REMARK  116  A    between atoms: _304  and  _307
REMARK  117  A    between atoms: _307  and  _308
REMARK  118  A    between atoms: _318  and  _320
REMARK  119  A    between atoms: _320  and  _321
REMARK  120  A    between atoms: _320  and  _323
REMARK  121  A    between atoms: _323  and  _324
REMARK  122  A    between atoms: _326  and  _328
REMARK  123  A    between atoms: _328  and  _329
REMARK  124  A    between atoms: _328  and  _331
REMARK  125  A    between atoms: _331  and  _332
REMARK  126  A    between atoms: _337  and  _339
REMARK  127  A    between atoms: _339  and  _340
REMARK  128  A    between atoms: _339  and  _342
REMARK  129  A    between atoms: _342  and  _343
REMARK  130  A    between atoms: _349  and  _351
REMARK  131  A    between atoms: _351  and  _352
REMARK  132  A    between atoms: _351  and  _354
REMARK  133  A    between atoms: _354  and  _355
REMARK  134  A    between atoms: _355  and  _356
REMARK  135  A    between atoms: _359  and  _361
REMARK  136  A    between atoms: _361  and  _362
REMARK  137  A    between atoms: _361  and  _364
REMARK  138  A    between atoms: _364  and  _365
REMARK  139  A    between atoms: _375  and  _377
REMARK  140  A    between atoms: _377  and  _378
REMARK  141  A    between atoms: _377  and  _380
REMARK  142  A    between atoms: _380  and  _381
REMARK  143  A    between atoms: _381  and  _382
REMARK  144  A    between atoms: _385  and  _387
REMARK  145  A    between atoms: _387  and  _388
REMARK  146  A    between atoms: _387  and  _390
REMARK  147  A    between atoms: _390  and  _391
REMARK  148  A    between atoms: _391  and  _392
REMARK  149  A    between atoms: _392  and  _393
REMARK  150  A    between atoms: _393  and  _394
REMARK  151  A    between atoms: _398  and  _400
REMARK  152  A    between atoms: _400  and  _401
REMARK  153  A    between atoms: _400  and  _403
REMARK  154  A    between atoms: _403  and  _404
REMARK                            x       y       z     vdW  Elec       q    Type
REMARK                         _______ _______ _______ _____ _____    ______ ____
ROOT
ATOM      1  CA  VAL A   1       6.170   7.391  14.095  0.00  0.00    +0.133 C 
ENDROOT
BRANCH   1   2
ATOM      2  CB  VAL A   1       5.056   7.967  13.196  0.00  0.00    +0.023 C 
ATOM      3  CG2 VAL A   1       3.704   7.931  13.944  0.00  0.00    +0.002 C 
ATOM      4  CG1 VAL A   1       4.971   7.156  11.888  0.00  0.00    +0.002 C 
ENDBRANCH   1   2
BRANCH   1   5
ATOM      5  N   VAL A   1       6.275   8.111  15.387  0.00  0.00    -0.239 NA
ATOM      6  H   VAL A   1       5.679   8.947  15.552  0.00  0.00    +0.142 HD
ENDBRANCH   1   5
BRANCH   1   7
ATOM      7  C   VAL A   1       7.518   7.396  13.366  0.00  0.00    +0.224 C 
ATOM      8  O   VAL A   1       7.985   6.353  12.906  0.00  0.00    -0.287 OA
ENDBRANCH   1   7
TORSDOF 3
REMARK  Name = ../refined-set-2016/2j7h/2j7h_pocket.pdb
REMARK  154 active torsions:
REMARK  status: ('A' for Active; 'I' for Inactive)
REMARK    1  A    between atoms: _1  and  _3
REMARK    2  A    between atoms: _3  and  _4
REMARK    3  A    between atoms: _7  and  _9
REMARK    4  A    between atoms: _9  and  _10
REMARK    5  A    between atoms: _9  and  _12
REMARK    6  A    between atoms: _12  and  _13
REMARK    7  A    between atoms: _16  and  _18
REMARK    8  A    between atoms: _18  and  _19
REMARK    9  A    between atoms: _22  and  _24
REMARK   10  A    between atoms: _24  and  _25
REMARK   11  A    between atoms: _24  and  _27
REMARK   12  A    between atoms: _27  and  _28
REMARK   13  A    between atoms: _30  and  _32
REMARK   14  A    between atoms: _32  and  _33
REMARK   15  A    between atoms: _32  and  _35
REMARK   16  A    between atoms: _35  and  _36
REMARK   17  A    between atoms: _41  and  _42
REMARK   18  A    between atoms: _44  and  _46
REMARK   19  A    between atoms: _46  and  _47
REMARK   20  A    between atoms: _46  and  _49
REMARK   21  A    between atoms: _49  and  _50
REMARK   22  A    between atoms: _50  and  _51
REMARK   23  A    between atoms: _56  and  _58
REMARK   24  A    between atoms: _58  and  _59
REMARK   25  A    between atoms: _58  and  _61
REMARK   26  A    between atoms: _61  and  _62
REMARK   27  A    between atoms: _62  and  _63
REMARK   28  A    between atoms: _63  and  _64
REMARK   29  A    between atoms: _73  and  _75
REMARK   30  A    between atoms: _75  and  _76
REMARK   31  A    between atoms: _75  and  _78
REMARK   32  A    between atoms: _78  and  _79
REMARK   33  A    between atoms: _82  and  _84
REMARK   34  A    between atoms: _84  and  _85
REMARK   35  A    between atoms: _84  and  _87
REMARK   36  A    between atoms: _87  and  _88
REMARK   37  A    between atoms: _93  and  _95
REMARK   38  A    between atoms: _95  and  _96
REMARK   39  A    between atoms: _95  and  _98
REMARK   40  A    between atoms: _98  and  _99
REMARK   41  A    between atoms: _109  and  _111
REMARK   42  A    between atoms: _111  and  _112
REMARK   43  A    between atoms: _111  and  _114
REMARK   44  A    between atoms: _114  and  _115
REMARK   45  A    between atoms: _120  and  _122
REMARK   46  A    between atoms: _122  and  _123
REMARK   47  A    between atoms: _122  and  _125
REMARK   48  A    between atoms: _125  and  _126
REMARK   49  A    between atoms: _126  and  _127
REMARK   50  A    between atoms: _130  and  _132
REMARK   51  A    between atoms: _132  and  _133
REMARK   52  A    between atoms: _132  and  _135
REMARK   53  A    between atoms: _138  and  _140
REMARK   54  A    between atoms: _140  and  _141
REMARK   55  A    between atoms: _140  and  _143
REMARK   56  A    between atoms: _143  and  _144
REMARK   57  A    between atoms: _149  and  _151
REMARK   58  A    between atoms: _151  and  _152
REMARK   59  A    between atoms: _151  and  _154
REMARK   60  A    between atoms: _157  and  _159
REMARK   61  A    between atoms: _159  and  _160
REMARK   62  A    between atoms: _159  and  _162
REMARK   63  A    between atoms: _162  and  _163
REMARK   64  A    between atoms: _169  and  _171
REMARK   65  A    between atoms: _171  and  _172
REMARK   66  A    between atoms: _171  and  _174
REMARK   67  A    between atoms: _174  and  _175
REMARK   68  A    between atoms: _180  and  _182
REMARK   69  A    between atoms: _182  and  _183
REMARK   70  A    between atoms: _182  and  _185
REMARK   71  A    between atoms: _185  and  _186
REMARK   72  A    between atoms: _191  and  _193
REMARK   73  A    between atoms: _193  and  _194
REMARK   74  A    between atoms: _193  and  _196
REMARK   75  A    between atoms: _196  and  _197
REMARK   76  A    between atoms: _202  and  _204
REMARK   77  A    between atoms: _204  and  _205
REMARK   78  A    between atoms: _204  and  _207
REMARK   79  A    between atoms: _207  and  _208
REMARK   80  A    between atoms: _213  and  _214
REMARK   81  A    between atoms: _216  and  _218
REMARK   82  A    between atoms: _218  and  _219
REMARK   83  A    between atoms: _218  and  _221
REMARK   84  A    between atoms: _221  and  _222
REMARK   85  A    between atoms: _227  and  _228
REMARK   86  A    between atoms: _230  and  _232
REMARK   87  A    between atoms: _232  and  _233
REMARK   88  A    between atoms: _232  and  _235
REMARK   89  A    between atoms: _235  and  _236
REMARK   90  A    between atoms: _236  and  _237
REMARK   91  A    between atoms: _239  and  _241
REMARK   92  A    between atoms: _241  and  _242
REMARK   93  A    between atoms: _241  and  _244
REMARK   94  A    between atoms: _244  and  _245
REMARK   95  A    between atoms: _255  and  _257
REMARK   96  A    between atoms: _257  and  _258
REMARK   97  A    between atoms: _257  and  _260
REMARK   98  A    between atoms: _260  and  _261
REMARK   99  A    between atoms: _264  and  _266
REMARK  100  A    between atoms: _266  and  _267
REMARK  101  A    between atoms: _266  and  _269
REMARK  102  A    between atoms: _269  and  _270
REMARK  103  A    between atoms: _270  and  _271
REMARK  104  A    between atoms: _274  and  _276
REMARK  105  A    between atoms: _276  and  _277
REMARK  106  A    between atoms: _276  and  _279
REMARK  107  A    between atoms: _279  and  _280
REMARK  108  A    between atoms: _285  and  _287
REMARK  109  A    between atoms: _287  and  _288
REMARK  110  A    between atoms: _290  and  _292
REMARK  111  A    between atoms: _292  and  _293
REMARK  112  A    between atoms: _296  and  _298
REMARK  113  A    between atoms: _298  and  _299
REMARK  114  A    between atoms: _302  and  _304
REMARK  115  A    between atoms: _304  and  _305
REMARK  116  A    between atoms: _304  and  _307
REMARK  117  A    between atoms: _307  and  _308
REMARK  118  A    between atoms: _318  and  _320
REMARK  119  A    between atoms: _320  and  _321
REMARK  120  A    between atoms: _320  and  _323
REMARK  121  A    between atoms: _323  and  _324
REMARK  122  A    between atoms: _326  and  _328
REMARK  123  A    between atoms: _328  and  _329
REMARK  124  A    between atoms: _328  and  _331
REMARK  125  A    between atoms: _331  and  _332
REMARK  126  A    between atoms: _337  and  _339
REMARK  127  A    between atoms: _339  and  _340
REMARK  128  A    between atoms: _339  and  _342
REMARK  129  A    between atoms: _342  and  _343
REMARK  130  A    between atoms: _349  and  _351
REMARK  131  A    between atoms: _351  and  _352
REMARK  132  A    between atoms: _351  and  _354
REMARK  133  A    between atoms: _354  and  _355
REMARK  134  A    between atoms: _355  and  _356
REMARK  135  A    between atoms: _359  and  _361
REMARK  136  A    between atoms: _361  and  _362
REMARK  137  A    between atoms: _361  and  _364
REMARK  138  A    between atoms: _364  and  _365
REMARK  139  A    between atoms: _375  and  _377
REMARK  140  A    between atoms: _377  and  _378
REMARK  141  A    between atoms: _377  and  _380
REMARK  142  A    between atoms: _380  and  _381
REMARK  143  A    between atoms: _381  and  _382
REMARK  144  A    between atoms: _385  and  _387
REMARK  145  A    between atoms: _387  and  _388
REMARK  146  A    between atoms: _387  and  _390
REMARK  147  A    between atoms: _390  and  _391
REMARK  148  A    between atoms: _391  and  _392
REMARK  149  A    between atoms: _392  and  _393
REMARK  150  A    between atoms: _393  and  _394
REMARK  151  A    between atoms: _398  and  _400
REMARK  152  A    between atoms: _400  and  _401
REMARK  153  A    between atoms: _400  and  _403
REMARK  154  A    between atoms: _403  and  _404
REMARK                            x       y       z     vdW  Elec       q    Type
REMARK                         _______ _______ _______ _____ _____    ______ ____
ROOT
ATOM      1  CB  HIS A   1       7.711   4.865   7.861  0.00  0.00    +0.072 C 
ENDROOT
BRANCH   1   2
ATOM      2  CG  HIS A   1       6.215   4.982   7.922  0.00  0.00    +0.082 A 
ATOM      3  ND1 HIS A   1       5.583   5.920   8.706  0.00  0.00    -0.227 NA
ATOM      4  CE1 HIS A   1       4.273   5.785   8.580  0.00  0.00    +0.199 A 
ATOM      5  NE2 HIS A   1       4.030   4.796   7.743  0.00  0.00    -0.221 NA
ATOM      6  CD2 HIS A   1       5.228   4.270   7.319  0.00  0.00    +0.115 A 
ENDBRANCH   1   2
BRANCH   1   7
ATOM      7  CA  HIS A   1       8.198   3.781   6.906  0.00  0.00    +0.139 C 
BRANCH   7   8
ATOM      8  N   HIS A   1       8.034   2.449   7.502  0.00  0.00    -0.239 NA
ATOM      9  H   HIS A   1       8.504   2.254   8.409  0.00  0.00    +0.142 HD
ENDBRANCH   7   8
BRANCH   7  10
ATOM     10  C   HIS A   1       9.655   4.024   6.624  0.00  0.00    +0.224 C 
ATOM     11  O   HIS A   1      10.516   3.349   7.206  0.00  0.00    -0.287 OA
ENDBRANCH   7  10
ENDBRANCH   1   7
TORSDOF 4
REMARK  Name = ../refined-set-2016/2j7h/2j7h_pocket.pdb
REMARK  154 active torsions:
REMARK  status: ('A' for Active; 'I' for Inactive)
REMARK    1  A    between atoms: _1  and  _3
REMARK    2  A    between atoms: _3  and  _4
REMARK    3  A    between atoms: _7  and  _9
REMARK    4  A    between atoms: _9  and  _10
REMARK    5  A    between atoms: _9  and  _12
REMARK    6  A    between atoms: _12  and  _13
REMARK    7  A    between atoms: _16  and  _18
REMARK    8  A    between atoms: _18  and  _19
REMARK    9  A    between atoms: _22  and  _24
REMARK   10  A    between atoms: _24  and  _25
REMARK   11  A    between atoms: _24  and  _27
REMARK   12  A    between atoms: _27  and  _28
REMARK   13  A    between atoms: _30  and  _32
REMARK   14  A    between atoms: _32  and  _33
REMARK   15  A    between atoms: _32  and  _35
REMARK   16  A    between atoms: _35  and  _36
REMARK   17  A    between atoms: _41  and  _42
REMARK   18  A    between atoms: _44  and  _46
REMARK   19  A    between atoms: _46  and  _47
REMARK   20  A    between atoms: _46  and  _49
REMARK   21  A    between atoms: _49  and  _50
REMARK   22  A    between atoms: _50  and  _51
REMARK   23  A    between atoms: _56  and  _58
REMARK   24  A    between atoms: _58  and  _59
REMARK   25  A    between atoms: _58  and  _61
REMARK   26  A    between atoms: _61  and  _62
REMARK   27  A    between atoms: _62  and  _63
REMARK   28  A    between atoms: _63  and  _64
REMARK   29  A    between atoms: _73  and  _75
REMARK   30  A    between atoms: _75  and  _76
REMARK   31  A    between atoms: _75  and  _78
REMARK   32  A    between atoms: _78  and  _79
REMARK   33  A    between atoms: _82  and  _84
REMARK   34  A    between atoms: _84  and  _85
REMARK   35  A    between atoms: _84  and  _87
REMARK   36  A    between atoms: _87  and  _88
REMARK   37  A    between atoms: _93  and  _95
REMARK   38  A    between atoms: _95  and  _96
REMARK   39  A    between atoms: _95  and  _98
REMARK   40  A    between atoms: _98  and  _99
REMARK   41  A    between atoms: _109  and  _111
REMARK   42  A    between atoms: _111  and  _112
REMARK   43  A    between atoms: _111  and  _114
REMARK   44  A    between atoms: _114  and  _115
REMARK   45  A    between atoms: _120  and  _122
REMARK   46  A    between atoms: _122  and  _123
REMARK   47  A    between atoms: _122  and  _125
REMARK   48  A    between atoms: _125  and  _126
REMARK   49  A    between atoms: _126  and  _127
REMARK   50  A    between atoms: _130  and  _132
REMARK   51  A    between atoms: _132  and  _133
REMARK   52  A    between atoms: _132  and  _135
REMARK   53  A    between atoms: _138  and  _140
REMARK   54  A    between atoms: _140  and  _141
REMARK   55  A    between atoms: _140  and  _143
REMARK   56  A    between atoms: _143  and  _144
REMARK   57  A    between atoms: _149  and  _151
REMARK   58  A    between atoms: _151  and  _152
REMARK   59  A    between atoms: _151  and  _154
REMARK   60  A    between atoms: _157  and  _159
REMARK   61  A    between atoms: _159  and  _160
REMARK   62  A    between atoms: _159  and  _162
REMARK   63  A    between atoms: _162  and  _163
REMARK   64  A    between atoms: _169  and  _171
REMARK   65  A    between atoms: _171  and  _172
REMARK   66  A    between atoms: _171  and  _174
REMARK   67  A    between atoms: _174  and  _175
REMARK   68  A    between atoms: _180  and  _182
REMARK   69  A    between atoms: _182  and  _183
REMARK   70  A    between atoms: _182  and  _185
REMARK   71  A    between atoms: _185  and  _186
REMARK   72  A    between atoms: _191  and  _193
REMARK   73  A    between atoms: _193  and  _194
REMARK   74  A    between atoms: _193  and  _196
REMARK   75  A    between atoms: _196  and  _197
REMARK   76  A    between atoms: _202  and  _204
REMARK   77  A    between atoms: _204  and  _205
REMARK   78  A    between atoms: _204  and  _207
REMARK   79  A    between atoms: _207  and  _208
REMARK   80  A    between atoms: _213  and  _214
REMARK   81  A    between atoms: _216  and  _218
REMARK   82  A    between atoms: _218  and  _219
REMARK   83  A    between atoms: _218  and  _221
REMARK   84  A    between atoms: _221  and  _222
REMARK   85  A    between atoms: _227  and  _228
REMARK   86  A    between atoms: _230  and  _232
REMARK   87  A    between atoms: _232  and  _233
REMARK   88  A    between atoms: _232  and  _235
REMARK   89  A    between atoms: _235  and  _236
REMARK   90  A    between atoms: _236  and  _237
REMARK   91  A    between atoms: _239  and  _241
REMARK   92  A    between atoms: _241  and  _242
REMARK   93  A    between atoms: _241  and  _244
REMARK   94  A    between atoms: _244  and  _245
REMARK   95  A    between atoms: _255  and  _257
REMARK   96  A    between atoms: _257  and  _258
REMARK   97  A    between atoms: _257  and  _260
REMARK   98  A    between atoms: _260  and  _261
REMARK   99  A    between atoms: _264  and  _266
REMARK  100  A    between atoms: _266  and  _267
REMARK  101  A    between atoms: _266  and  _269
REMARK  102  A    between atoms: _269  and  _270
REMARK  103  A    between atoms: _270  and  _271
REMARK  104  A    between atoms: _274  and  _276
REMARK  105  A    between atoms: _276  and  _277
REMARK  106  A    between atoms: _276  and  _279
REMARK  107  A    between atoms: _279  and  _280
REMARK  108  A    between atoms: _285  and  _287
REMARK  109  A    between atoms: _287  and  _288
REMARK  110  A    between atoms: _290  and  _292
REMARK  111  A    between atoms: _292  and  _293
REMARK  112  A    between atoms: _296  and  _298
REMARK  113  A    between atoms: _298  and  _299
REMARK  114  A    between atoms: _302  and  _304
REMARK  115  A    between atoms: _304  and  _305
REMARK  116  A    between atoms: _304  and  _307
REMARK  117  A    between atoms: _307  and  _308
REMARK  118  A    between atoms: _318  and  _320
REMARK  119  A    between atoms: _320  and  _321
REMARK  120  A    between atoms: _320  and  _323
REMARK  121  A    between atoms: _323  and  _324
REMARK  122  A    between atoms: _326  and  _328
REMARK  123  A    between atoms: _328  and  _329
REMARK  124  A    between atoms: _328  and  _331
REMARK  125  A    between atoms: _331  and  _332
REMARK  126  A    between atoms: _337  and  _339
REMARK  127  A    between atoms: _339  and  _340
REMARK  128  A    between atoms: _339  and  _342
REMARK  129  A    between atoms: _342  and  _343
REMARK  130  A    between atoms: _349  and  _351
REMARK  131  A    between atoms: _351  and  _352
REMARK  132  A    between atoms: _351  and  _354
REMARK  133  A    between atoms: _354  and  _355
REMARK  134  A    between atoms: _355  and  _356
REMARK  135  A    between atoms: _359  and  _361
REMARK  136  A    between atoms: _361  and  _362
REMARK  137  A    between atoms: _361  and  _364
REMARK  138  A    between atoms: _364  and  _365
REMARK  139  A    between atoms: _375  and  _377
REMARK  140  A    between atoms: _377  and  _378
REMARK  141  A    between atoms: _377  and  _380
REMARK  142  A    between atoms: _380  and  _381
REMARK  143  A    between atoms: _381  and  _382
REMARK  144  A    between atoms: _385  and  _387
REMARK  145  A    between atoms: _387  and  _388
REMARK  146  A    between atoms: _387  and  _390
REMARK  147  A    between atoms: _390  and  _391
REMARK  148  A    between atoms: _391  and  _392
REMARK  149  A    between atoms: _392  and  _393
REMARK  150  A    between atoms: _393  and  _394
REMARK  151  A    between atoms: _398  and  _400
REMARK  152  A    between atoms: _400  and  _401
REMARK  153  A    between atoms: _400  and  _403
REMARK  154  A    between atoms: _403  and  _404
REMARK                            x       y       z     vdW  Elec       q    Type
REMARK                         _______ _______ _______ _____ _____    ______ ____
ROOT
ATOM      1  C   PHE A   2       1.107  13.228  18.123  0.00  0.00    +0.241 C 
ATOM      2  O   PHE A   2      -0.005  13.733  18.206  0.00  0.00    -0.273 OA
ATOM      3  N   ASN A   3       1.329  11.987  17.679  0.00  0.00    -0.297 N 
ATOM      4  H   ASN A   3       2.301  11.698  17.450  0.00  0.00    +0.150 HD
ENDROOT
BRANCH   1   5
ATOM      5  CA  PHE A   2       2.309  14.009  18.593  0.00  0.00    +0.153 C 
BRANCH   5   7
ATOM      6  C   VAL A   1       3.103  16.041  17.490  0.00  0.00    +0.238 C 
ATOM      7  N   PHE A   2       2.196  15.438  18.262  0.00  0.00    -0.297 N 
ATOM      8  H   PHE A   2       1.396  15.988  18.636  0.00  0.00    +0.150 HD
ATOM      9  O   VAL A   1       4.086  15.451  17.029  0.00  0.00    -0.274 OA
BRANCH   6  10
ATOM     10  CA  VAL A   1       2.877  17.509  17.167  0.00  0.00    +0.145 C 
BRANCH  10  11
ATOM     11  CB  VAL A   1       2.417  17.633  15.691  0.00  0.00    +0.025 C 
ATOM     12  CG2 VAL A   1       1.771  18.997  15.445  0.00  0.00    +0.002 C 
ATOM     13  CG1 VAL A   1       1.455  16.516  15.304  0.00  0.00    +0.002 C 
ENDBRANCH  10  11
BRANCH  10  14
ATOM     14  N   VAL A   1       4.081  18.313  17.376  0.00  0.00    -0.238 NA
ATOM     15  H   VAL A   1       4.906  18.141  16.767  0.00  0.00    +0.142 HD
ENDBRANCH  10  14
ENDBRANCH   6  10
ENDBRANCH   5   7
BRANCH   5  16
ATOM     16  CB  PHE A   2       2.465  13.834  20.108  0.00  0.00    +0.055 C 
BRANCH  16  17
ATOM     17  CG  PHE A   2       3.518  14.724  20.697  0.00  0.00    -0.020 A 
ATOM     18  CD2 PHE A   2       3.171  15.838  21.434  0.00  0.00    -0.004 A 
ATOM     19  CE2 PHE A   2       4.157  16.689  21.962  0.00  0.00    -0.000 A 
ATOM     20  CZ  PHE A   2       5.498  16.423  21.720  0.00  0.00    -0.000 A 
ATOM     21  CE1 PHE A   2       5.849  15.327  20.958  0.00  0.00    -0.000 A 
ATOM     22  CD1 PHE A   2       4.874  14.478  20.444  0.00  0.00    -0.004 A 
ENDBRANCH  16  17
ENDBRANCH   5  16
ENDBRANCH   1   5
BRANCH   3  23
ATOM     23  CA  ASN A   3       0.239  11.023  17.506  0.00  0.00    +0.158 C 
BRANCH  23  24
ATOM     24  C   ASN A   3      -0.221  10.502  18.861  0.00  0.00    +0.241 C 
ATOM     25  O   ASN A   3       0.556  10.405  19.825  0.00  0.00    -0.273 OA
ATOM     26  N   ASN A   4      -1.496  10.146  18.932  0.00  0.00    -0.298 N 
ATOM     27  H   ASN A   4      -2.110  10.235  18.097  0.00  0.00    +0.150 HD
BRANCH  26  28
ATOM     28  CA  ASN A   4      -2.037   9.626  20.191  0.00  0.00    +0.146 C 
BRANCH  28  29
ATOM     29  C   ASN A   4      -3.135   8.622  19.920  0.00  0.00    +0.227 C 
ATOM     30  O   ASN A   4      -3.923   8.824  19.009  0.00  0.00    -0.286 OA
ENDBRANCH  28  29
BRANCH  28  31
ATOM     31  CB  ASN A   4      -2.596  10.744  21.085  0.00  0.00    +0.112 C 
BRANCH  31  32
ATOM     32  CG  ASN A   4      -1.621  11.856  21.336  0.00  0.00    +0.222 C 
ATOM     33  OD1 ASN A   4      -0.820  11.814  22.268  0.00  0.00    -0.275 OA
ATOM     34  ND2 ASN A   4      -1.706  12.883  20.520  0.00  0.00    -0.329 N 
ATOM     35 HD21 ASN A   4      -1.080  13.703  20.650  0.00  0.00    +0.145 HD
ATOM     36 HD22 ASN A   4      -2.399  12.875  19.745  0.00  0.00    +0.145 HD
ENDBRANCH  31  32
ENDBRANCH  28  31
ENDBRANCH  26  28
ENDBRANCH  23  24
BRANCH  23  37
ATOM     37  CB  ASN A   3       0.643   9.809  16.647  0.00  0.00    +0.114 C 
BRANCH  37  38
ATOM     38  CG  ASN A   3       1.925   9.136  17.135  0.00  0.00    +0.222 C 
ATOM     39  ND2 ASN A   3       1.792   7.946  17.731  0.00  0.00    -0.329 N 
ATOM     40 HD21 ASN A   3       2.632   7.444  18.083  0.00  0.00    +0.145 HD
ATOM     41 HD22 ASN A   3       0.849   7.523  17.842  0.00  0.00    +0.145 HD
ATOM     42  OD1 ASN A   3       3.019   9.684  16.977  0.00  0.00    -0.275 OA
ENDBRANCH  37  38
ENDBRANCH  23  37
ENDBRANCH   3  23
TORSDOF 15
REMARK  Name = ../refined-set-2016/2j7h/2j7h_pocket.pdb
REMARK  154 active torsions:
REMARK  status: ('A' for Active; 'I' for Inactive)
REMARK    1  A    between atoms: _1  and  _3
REMARK    2  A    between atoms: _3  and  _4
REMARK    3  A    between atoms: _7  and  _9
REMARK    4  A    between atoms: _9  and  _10
REMARK    5  A    between atoms: _9  and  _12
REMARK    6  A    between atoms: _12  and  _13
REMARK    7  A    between atoms: _16  and  _18
REMARK    8  A    between atoms: _18  and  _19
REMARK    9  A    between atoms: _22  and  _24
REMARK   10  A    between atoms: _24  and  _25
REMARK   11  A    between atoms: _24  and  _27
REMARK   12  A    between atoms: _27  and  _28
REMARK   13  A    between atoms: _30  and  _32
REMARK   14  A    between atoms: _32  and  _33
REMARK   15  A    between atoms: _32  and  _35
REMARK   16  A    between atoms: _35  and  _36
REMARK   17  A    between atoms: _41  and  _42
REMARK   18  A    between atoms: _44  and  _46
REMARK   19  A    between atoms: _46  and  _47
REMARK   20  A    between atoms: _46  and  _49
REMARK   21  A    between atoms: _49  and  _50
REMARK   22  A    between atoms: _50  and  _51
REMARK   23  A    between atoms: _56  and  _58
REMARK   24  A    between atoms: _58  and  _59
REMARK   25  A    between atoms: _58  and  _61
REMARK   26  A    between atoms: _61  and  _62
REMARK   27  A    between atoms: _62  and  _63
REMARK   28  A    between atoms: _63  and  _64
REMARK   29  A    between atoms: _73  and  _75
REMARK   30  A    between atoms: _75  and  _76
REMARK   31  A    between atoms: _75  and  _78
REMARK   32  A    between atoms: _78  and  _79
REMARK   33  A    between atoms: _82  and  _84
REMARK   34  A    between atoms: _84  and  _85
REMARK   35  A    between atoms: _84  and  _87
REMARK   36  A    between atoms: _87  and  _88
REMARK   37  A    between atoms: _93  and  _95
REMARK   38  A    between atoms: _95  and  _96
REMARK   39  A    between atoms: _95  and  _98
REMARK   40  A    between atoms: _98  and  _99
REMARK   41  A    between atoms: _109  and  _111
REMARK   42  A    between atoms: _111  and  _112
REMARK   43  A    between atoms: _111  and  _114
REMARK   44  A    between atoms: _114  and  _115
REMARK   45  A    between atoms: _120  and  _122
REMARK   46  A    between atoms: _122  and  _123
REMARK   47  A    between atoms: _122  and  _125
REMARK   48  A    between atoms: _125  and  _126
REMARK   49  A    between atoms: _126  and  _127
REMARK   50  A    between atoms: _130  and  _132
REMARK   51  A    between atoms: _132  and  _133
REMARK   52  A    between atoms: _132  and  _135
REMARK   53  A    between atoms: _138  and  _140
REMARK   54  A    between atoms: _140  and  _141
REMARK   55  A    between atoms: _140  and  _143
REMARK   56  A    between atoms: _143  and  _144
REMARK   57  A    between atoms: _149  and  _151
REMARK   58  A    between atoms: _151  and  _152
REMARK   59  A    between atoms: _151  and  _154
REMARK   60  A    between atoms: _157  and  _159
REMARK   61  A    between atoms: _159  and  _160
REMARK   62  A    between atoms: _159  and  _162
REMARK   63  A    between atoms: _162  and  _163
REMARK   64  A    between atoms: _169  and  _171
REMARK   65  A    between atoms: _171  and  _172
REMARK   66  A    between atoms: _171  and  _174
REMARK   67  A    between atoms: _174  and  _175
REMARK   68  A    between atoms: _180  and  _182
REMARK   69  A    between atoms: _182  and  _183
REMARK   70  A    between atoms: _182  and  _185
REMARK   71  A    between atoms: _185  and  _186
REMARK   72  A    between atoms: _191  and  _193
REMARK   73  A    between atoms: _193  and  _194
REMARK   74  A    between atoms: _193  and  _196
REMARK   75  A    between atoms: _196  and  _197
REMARK   76  A    between atoms: _202  and  _204
REMARK   77  A    between atoms: _204  and  _205
REMARK   78  A    between atoms: _204  and  _207
REMARK   79  A    between atoms: _207  and  _208
REMARK   80  A    between atoms: _213  and  _214
REMARK   81  A    between atoms: _216  and  _218
REMARK   82  A    between atoms: _218  and  _219
REMARK   83  A    between atoms: _218  and  _221
REMARK   84  A    between atoms: _221  and  _222
REMARK   85  A    between atoms: _227  and  _228
REMARK   86  A    between atoms: _230  and  _232
REMARK   87  A    between atoms: _232  and  _233
REMARK   88  A    between atoms: _232  and  _235
REMARK   89  A    between atoms: _235  and  _236
REMARK   90  A    between atoms: _236  and  _237
REMARK   91  A    between atoms: _239  and  _241
REMARK   92  A    between atoms: _241  and  _242
REMARK   93  A    between atoms: _241  and  _244
REMARK   94  A    between atoms: _244  and  _245
REMARK   95  A    between atoms: _255  and  _257
REMARK   96  A    between atoms: _257  and  _258
REMARK   97  A    between atoms: _257  and  _260
REMARK   98  A    between atoms: _260  and  _261
REMARK   99  A    between atoms: _264  and  _266
REMARK  100  A    between atoms: _266  and  _267
REMARK  101  A    between atoms: _266  and  _269
REMARK  102  A    between atoms: _269  and  _270
REMARK  103  A    between atoms: _270  and  _271
REMARK  104  A    between atoms: _274  and  _276
REMARK  105  A    between atoms: _276  and  _277
REMARK  106  A    between atoms: _276  and  _279
REMARK  107  A    between atoms: _279  and  _280
REMARK  108  A    between atoms: _285  and  _287
REMARK  109  A    between atoms: _287  and  _288
REMARK  110  A    between atoms: _290  and  _292
REMARK  111  A    between atoms: _292  and  _293
REMARK  112  A    between atoms: _296  and  _298
REMARK  113  A    between atoms: _298  and  _299
REMARK  114  A    between atoms: _302  and  _304
REMARK  115  A    between atoms: _304  and  _305
REMARK  116  A    between atoms: _304  and  _307
REMARK  117  A    between atoms: _307  and  _308
REMARK  118  A    between atoms: _318  and  _320
REMARK  119  A    between atoms: _320  and  _321
REMARK  120  A    between atoms: _320  and  _323
REMARK  121  A    between atoms: _323  and  _324
REMARK  122  A    between atoms: _326  and  _328
REMARK  123  A    between atoms: _328  and  _329
REMARK  124  A    between atoms: _328  and  _331
REMARK  125  A    between atoms: _331  and  _332
REMARK  126  A    between atoms: _337  and  _339
REMARK  127  A    between atoms: _339  and  _340
REMARK  128  A    between atoms: _339  and  _342
REMARK  129  A    between atoms: _342  and  _343
REMARK  130  A    between atoms: _349  and  _351
REMARK  131  A    between atoms: _351  and  _352
REMARK  132  A    between atoms: _351  and  _354
REMARK  133  A    between atoms: _354  and  _355
REMARK  134  A    between atoms: _355  and  _356
REMARK  135  A    between atoms: _359  and  _361
REMARK  136  A    between atoms: _361  and  _362
REMARK  137  A    between atoms: _361  and  _364
REMARK  138  A    between atoms: _364  and  _365
REMARK  139  A    between atoms: _375  and  _377
REMARK  140  A    between atoms: _377  and  _378
REMARK  141  A    between atoms: _377  and  _380
REMARK  142  A    between atoms: _380  and  _381
REMARK  143  A    between atoms: _381  and  _382
REMARK  144  A    between atoms: _385  and  _387
REMARK  145  A    between atoms: _387  and  _388
REMARK  146  A    between atoms: _387  and  _390
REMARK  147  A    between atoms: _390  and  _391
REMARK  148  A    between atoms: _391  and  _392
REMARK  149  A    between atoms: _392  and  _393
REMARK  150  A    between atoms: _393  and  _394
REMARK  151  A    between atoms: _398  and  _400
REMARK  152  A    between atoms: _400  and  _401
REMARK  153  A    between atoms: _400  and  _403
REMARK  154  A    between atoms: _403  and  _404
REMARK                            x       y       z     vdW  Elec       q    Type
REMARK                         _______ _______ _______ _____ _____    ______ ____
ROOT
ATOM      1  CA  TYR A   2      -5.906  11.655  17.286  0.00  0.00    +0.153 C 
ENDROOT
BRANCH   1   4
ATOM      2  C   ASN A   1      -3.905  13.063  17.219  0.00  0.00    +0.239 C 
ATOM      3  O   ASN A   1      -3.385  12.489  18.185  0.00  0.00    -0.274 OA
ATOM      4  N   TYR A   2      -5.098  12.748  16.731  0.00  0.00    -0.297 N 
ATOM      5  H   TYR A   2      -5.473  13.293  15.929  0.00  0.00    +0.150 HD
BRANCH   2   6
ATOM      6  CA  ASN A   1      -3.183  14.202  16.541  0.00  0.00    +0.154 C 
BRANCH   6   7
ATOM      7  N   ASN A   1      -2.416  14.891  17.563  0.00  0.00    -0.238 NA
ATOM      8  H   ASN A   1      -1.478  14.532  17.833  0.00  0.00    +0.142 HD
ENDBRANCH   6   7
BRANCH   6   9
ATOM      9  CB  ASN A   1      -2.273  13.638  15.425  0.00  0.00    +0.111 C 
BRANCH   9  10
ATOM     10  CG  ASN A   1      -1.526  14.707  14.674  0.00  0.00    +0.221 C 
ATOM     11  OD1 ASN A   1      -1.808  15.903  14.794  0.00  0.00    -0.275 OA
ATOM     12  ND2 ASN A   1      -0.539  14.279  13.886  0.00  0.00    -0.329 N 
ATOM     13 HD21 ASN A   1      -0.335  13.262  13.814  0.00  0.00    +0.145 HD
ATOM     14 HD22 ASN A   1       0.027  14.962  13.343  0.00  0.00    +0.145 HD
ENDBRANCH   9  10
ENDBRANCH   6   9
ENDBRANCH   2   6
ENDBRANCH   1   4
BRANCH   1  15
ATOM     15  C   TYR A   2      -6.851  11.039  16.226  0.00  0.00    +0.241 C 
ATOM     16  N   TYR A   3      -6.904   9.701  16.156  0.00  0.00    -0.298 N 
ATOM     17  H   TYR A   3      -6.326   9.151  16.823  0.00  0.00    +0.150 HD
ATOM     18  O   TYR A   2      -7.516  11.794  15.487  0.00  0.00    -0.273 OA
BRANCH  16  19
ATOM     19  CA  TYR A   3      -7.743   8.960  15.178  0.00  0.00    +0.141 C 
BRANCH  19  20
ATOM     20  C   TYR A   3      -8.530   7.815  15.788  0.00  0.00    +0.227 C 
ATOM     21  O   TYR A   3      -9.661   7.532  15.368  0.00  0.00    -0.286 OA
ENDBRANCH  19  20
BRANCH  19  22
ATOM     22  CB  TYR A   3      -6.896   8.338  14.037  0.00  0.00    +0.054 C 
BRANCH  22  23
ATOM     23  CG  TYR A   3      -6.271   9.375  13.150  0.00  0.00    -0.020 A 
ATOM     24  CD2 TYR A   3      -5.016   9.922  13.447  0.00  0.00    -0.001 A 
ATOM     25  CE2 TYR A   3      -4.455  10.902  12.636  0.00  0.00    +0.036 A 
ATOM     26  CZ  TYR A   3      -5.163  11.339  11.546  0.00  0.00    +0.134 A 
ATOM     27  CE1 TYR A   3      -6.419  10.827  11.252  0.00  0.00    +0.036 A 
ATOM     28  CD1 TYR A   3      -6.959   9.850  12.050  0.00  0.00    -0.001 A 
BRANCH  26  29
ATOM     29  OH  TYR A   3      -4.688  12.309  10.714  0.00  0.00    -0.506 OA
ATOM     30  HH  TYR A   3      -3.791  12.595  11.021  0.00  0.00    +0.292 HD
ENDBRANCH  26  29
ENDBRANCH  22  23
ENDBRANCH  19  22
ENDBRANCH  16  19
ENDBRANCH   1  15
BRANCH   1  31
ATOM     31  CB  TYR A   2      -6.773  12.155  18.464  0.00  0.00    +0.055 C 
BRANCH  31  32
ATOM     32  CG  TYR A   2      -7.660  11.034  18.937  0.00  0.00    -0.020 A 
ATOM     33  CD2 TYR A   2      -7.151  10.040  19.758  0.00  0.00    -0.001 A 
ATOM     34  CE2 TYR A   2      -7.932   8.961  20.161  0.00  0.00    +0.036 A 
ATOM     35  CZ  TYR A   2      -9.243   8.873  19.731  0.00  0.00    +0.134 A 
ATOM     36  CE1 TYR A   2      -9.785   9.840  18.893  0.00  0.00    +0.036 A 
ATOM     37  CD1 TYR A   2      -8.987  10.918  18.484  0.00  0.00    -0.001 A 
BRANCH  35  38
ATOM     38  OH  TYR A   2     -10.001   7.809  20.133  0.00  0.00    -0.506 OA
ATOM     39  HH  TYR A   2     -10.792   8.138  20.629  0.00  0.00    +0.292 HD
ENDBRANCH  35  38
ENDBRANCH  31  32
ENDBRANCH   1  31
TORSDOF 14
REMARK  Name = ../refined-set-2016/2j7h/2j7h_pocket.pdb
REMARK  154 active torsions:
REMARK  status: ('A' for Active; 'I' for Inactive)
REMARK    1  A    between atoms: _1  and  _3
REMARK    2  A    between atoms: _3  and  _4
REMARK    3  A    between atoms: _7  and  _9
REMARK    4  A    between atoms: _9  and  _10
REMARK    5  A    between atoms: _9  and  _12
REMARK    6  A    between atoms: _12  and  _13
REMARK    7  A    between atoms: _16  and  _18
REMARK    8  A    between atoms: _18  and  _19
REMARK    9  A    between atoms: _22  and  _24
REMARK   10  A    between atoms: _24  and  _25
REMARK   11  A    between atoms: _24  and  _27
REMARK   12  A    between atoms: _27  and  _28
REMARK   13  A    between atoms: _30  and  _32
REMARK   14  A    between atoms: _32  and  _33
REMARK   15  A    between atoms: _32  and  _35
REMARK   16  A    between atoms: _35  and  _36
REMARK   17  A    between atoms: _41  and  _42
REMARK   18  A    between atoms: _44  and  _46
REMARK   19  A    between atoms: _46  and  _47
REMARK   20  A    between atoms: _46  and  _49
REMARK   21  A    between atoms: _49  and  _50
REMARK   22  A    between atoms: _50  and  _51
REMARK   23  A    between atoms: _56  and  _58
REMARK   24  A    between atoms: _58  and  _59
REMARK   25  A    between atoms: _58  and  _61
REMARK   26  A    between atoms: _61  and  _62
REMARK   27  A    between atoms: _62  and  _63
REMARK   28  A    between atoms: _63  and  _64
REMARK   29  A    between atoms: _73  and  _75
REMARK   30  A    between atoms: _75  and  _76
REMARK   31  A    between atoms: _75  and  _78
REMARK   32  A    between atoms: _78  and  _79
REMARK   33  A    between atoms: _82  and  _84
REMARK   34  A    between atoms: _84  and  _85
REMARK   35  A    between atoms: _84  and  _87
REMARK   36  A    between atoms: _87  and  _88
REMARK   37  A    between atoms: _93  and  _95
REMARK   38  A    between atoms: _95  and  _96
REMARK   39  A    between atoms: _95  and  _98
REMARK   40  A    between atoms: _98  and  _99
REMARK   41  A    between atoms: _109  and  _111
REMARK   42  A    between atoms: _111  and  _112
REMARK   43  A    between atoms: _111  and  _114
REMARK   44  A    between atoms: _114  and  _115
REMARK   45  A    between atoms: _120  and  _122
REMARK   46  A    between atoms: _122  and  _123
REMARK   47  A    between atoms: _122  and  _125
REMARK   48  A    between atoms: _125  and  _126
REMARK   49  A    between atoms: _126  and  _127
REMARK   50  A    between atoms: _130  and  _132
REMARK   51  A    between atoms: _132  and  _133
REMARK   52  A    between atoms: _132  and  _135
REMARK   53  A    between atoms: _138  and  _140
REMARK   54  A    between atoms: _140  and  _141
REMARK   55  A    between atoms: _140  and  _143
REMARK   56  A    between atoms: _143  and  _144
REMARK   57  A    between atoms: _149  and  _151
REMARK   58  A    between atoms: _151  and  _152
REMARK   59  A    between atoms: _151  and  _154
REMARK   60  A    between atoms: _157  and  _159
REMARK   61  A    between atoms: _159  and  _160
REMARK   62  A    between atoms: _159  and  _162
REMARK   63  A    between atoms: _162  and  _163
REMARK   64  A    between atoms: _169  and  _171
REMARK   65  A    between atoms: _171  and  _172
REMARK   66  A    between atoms: _171  and  _174
REMARK   67  A    between atoms: _174  and  _175
REMARK   68  A    between atoms: _180  and  _182
REMARK   69  A    between atoms: _182  and  _183
REMARK   70  A    between atoms: _182  and  _185
REMARK   71  A    between atoms: _185  and  _186
REMARK   72  A    between atoms: _191  and  _193
REMARK   73  A    between atoms: _193  and  _194
REMARK   74  A    between atoms: _193  and  _196
REMARK   75  A    between atoms: _196  and  _197
REMARK   76  A    between atoms: _202  and  _204
REMARK   77  A    between atoms: _204  and  _205
REMARK   78  A    between atoms: _204  and  _207
REMARK   79  A    between atoms: _207  and  _208
REMARK   80  A    between atoms: _213  and  _214
REMARK   81  A    between atoms: _216  and  _218
REMARK   82  A    between atoms: _218  and  _219
REMARK   83  A    between atoms: _218  and  _221
REMARK   84  A    between atoms: _221  and  _222
REMARK   85  A    between atoms: _227  and  _228
REMARK   86  A    between atoms: _230  and  _232
REMARK   87  A    between atoms: _232  and  _233
REMARK   88  A    between atoms: _232  and  _235
REMARK   89  A    between atoms: _235  and  _236
REMARK   90  A    between atoms: _236  and  _237
REMARK   91  A    between atoms: _239  and  _241
REMARK   92  A    between atoms: _241  and  _242
REMARK   93  A    between atoms: _241  and  _244
REMARK   94  A    between atoms: _244  and  _245
REMARK   95  A    between atoms: _255  and  _257
REMARK   96  A    between atoms: _257  and  _258
REMARK   97  A    between atoms: _257  and  _260
REMARK   98  A    between atoms: _260  and  _261
REMARK   99  A    between atoms: _264  and  _266
REMARK  100  A    between atoms: _266  and  _267
REMARK  101  A    between atoms: _266  and  _269
REMARK  102  A    between atoms: _269  and  _270
REMARK  103  A    between atoms: _270  and  _271
REMARK  104  A    between atoms: _274  and  _276
REMARK  105  A    between atoms: _276  and  _277
REMARK  106  A    between atoms: _276  and  _279
REMARK  107  A    between atoms: _279  and  _280
REMARK  108  A    between atoms: _285  and  _287
REMARK  109  A    between atoms: _287  and  _288
REMARK  110  A    between atoms: _290  and  _292
REMARK  111  A    between atoms: _292  and  _293
REMARK  112  A    between atoms: _296  and  _298
REMARK  113  A    between atoms: _298  and  _299
REMARK  114  A    between atoms: _302  and  _304
REMARK  115  A    between atoms: _304  and  _305
REMARK  116  A    between atoms: _304  and  _307
REMARK  117  A    between atoms: _307  and  _308
REMARK  118  A    between atoms: _318  and  _320
REMARK  119  A    between atoms: _320  and  _321
REMARK  120  A    between atoms: _320  and  _323
REMARK  121  A    between atoms: _323  and  _324
REMARK  122  A    between atoms: _326  and  _328
REMARK  123  A    between atoms: _328  and  _329
REMARK  124  A    between atoms: _328  and  _331
REMARK  125  A    between atoms: _331  and  _332
REMARK  126  A    between atoms: _337  and  _339
REMARK  127  A    between atoms: _339  and  _340
REMARK  128  A    between atoms: _339  and  _342
REMARK  129  A    between atoms: _342  and  _343
REMARK  130  A    between atoms: _349  and  _351
REMARK  131  A    between atoms: _351  and  _352
REMARK  132  A    between atoms: _351  and  _354
REMARK  133  A    between atoms: _354  and  _355
REMARK  134  A    between atoms: _355  and  _356
REMARK  135  A    between atoms: _359  and  _361
REMARK  136  A    between atoms: _361  and  _362
REMARK  137  A    between atoms: _361  and  _364
REMARK  138  A    between atoms: _364  and  _365
REMARK  139  A    between atoms: _375  and  _377
REMARK  140  A    between atoms: _377  and  _378
REMARK  141  A    between atoms: _377  and  _380
REMARK  142  A    between atoms: _380  and  _381
REMARK  143  A    between atoms: _381  and  _382
REMARK  144  A    between atoms: _385  and  _387
REMARK  145  A    between atoms: _387  and  _388
REMARK  146  A    between atoms: _387  and  _390
REMARK  147  A    between atoms: _390  and  _391
REMARK  148  A    between atoms: _391  and  _392
REMARK  149  A    between atoms: _392  and  _393
REMARK  150  A    between atoms: _393  and  _394
REMARK  151  A    between atoms: _398  and  _400
REMARK  152  A    between atoms: _400  and  _401
REMARK  153  A    between atoms: _400  and  _403
REMARK  154  A    between atoms: _403  and  _404
REMARK                            x       y       z     vdW  Elec       q    Type
REMARK                         _______ _______ _______ _____ _____    ______ ____
ROOT
ATOM      1  CA  MET A   1      -7.721   1.657   8.038  0.00  0.00    +0.134 C 
ENDROOT
BRANCH   1   2
ATOM      2  N   MET A   1      -9.026   2.045   7.477  0.00  0.00    -0.239 NA
ATOM      3  H   MET A   1      -9.518   2.880   7.855  0.00  0.00    +0.142 HD
ENDBRANCH   1   2
BRANCH   1   4
ATOM      4  C   MET A   1      -7.829   0.444   8.991  0.00  0.00    +0.224 C 
ATOM      5  O   MET A   1      -6.812  -0.157   9.374  0.00  0.00    -0.287 OA
ENDBRANCH   1   4
BRANCH   1   6
ATOM      6  CB  MET A   1      -7.063   2.814   8.808  0.00  0.00    +0.037 C 
BRANCH   6   7
ATOM      7  CG  MET A   1      -6.821   4.124   8.042  0.00  0.00    +0.059 C 
BRANCH   7   8
ATOM      8  SD  MET A   1      -5.662   4.030   6.666  0.00  0.00    -0.139 S 
ATOM      9  CE  MET A   1      -4.135   3.465   7.408  0.00  0.00    +0.069 C 
ENDBRANCH   7   8
ENDBRANCH   6   7
ENDBRANCH   1   6
TORSDOF 5
REMARK  Name = ../refined-set-2016/2j7h/2j7h_pocket.pdb
REMARK  154 active torsions:
REMARK  status: ('A' for Active; 'I' for Inactive)
REMARK    1  A    between atoms: _1  and  _3
REMARK    2  A    between atoms: _3  and  _4
REMARK    3  A    between atoms: _7  and  _9
REMARK    4  A    between atoms: _9  and  _10
REMARK    5  A    between atoms: _9  and  _12
REMARK    6  A    between atoms: _12  and  _13
REMARK    7  A    between atoms: _16  and  _18
REMARK    8  A    between atoms: _18  and  _19
REMARK    9  A    between atoms: _22  and  _24
REMARK   10  A    between atoms: _24  and  _25
REMARK   11  A    between atoms: _24  and  _27
REMARK   12  A    between atoms: _27  and  _28
REMARK   13  A    between atoms: _30  and  _32
REMARK   14  A    between atoms: _32  and  _33
REMARK   15  A    between atoms: _32  and  _35
REMARK   16  A    between atoms: _35  and  _36
REMARK   17  A    between atoms: _41  and  _42
REMARK   18  A    between atoms: _44  and  _46
REMARK   19  A    between atoms: _46  and  _47
REMARK   20  A    between atoms: _46  and  _49
REMARK   21  A    between atoms: _49  and  _50
REMARK   22  A    between atoms: _50  and  _51
REMARK   23  A    between atoms: _56  and  _58
REMARK   24  A    between atoms: _58  and  _59
REMARK   25  A    between atoms: _58  and  _61
REMARK   26  A    between atoms: _61  and  _62
REMARK   27  A    between atoms: _62  and  _63
REMARK   28  A    between atoms: _63  and  _64
REMARK   29  A    between atoms: _73  and  _75
REMARK   30  A    between atoms: _75  and  _76
REMARK   31  A    between atoms: _75  and  _78
REMARK   32  A    between atoms: _78  and  _79
REMARK   33  A    between atoms: _82  and  _84
REMARK   34  A    between atoms: _84  and  _85
REMARK   35  A    between atoms: _84  and  _87
REMARK   36  A    between atoms: _87  and  _88
REMARK   37  A    between atoms: _93  and  _95
REMARK   38  A    between atoms: _95  and  _96
REMARK   39  A    between atoms: _95  and  _98
REMARK   40  A    between atoms: _98  and  _99
REMARK   41  A    between atoms: _109  and  _111
REMARK   42  A    between atoms: _111  and  _112
REMARK   43  A    between atoms: _111  and  _114
REMARK   44  A    between atoms: _114  and  _115
REMARK   45  A    between atoms: _120  and  _122
REMARK   46  A    between atoms: _122  and  _123
REMARK   47  A    between atoms: _122  and  _125
REMARK   48  A    between atoms: _125  and  _126
REMARK   49  A    between atoms: _126  and  _127
REMARK   50  A    between atoms: _130  and  _132
REMARK   51  A    between atoms: _132  and  _133
REMARK   52  A    between atoms: _132  and  _135
REMARK   53  A    between atoms: _138  and  _140
REMARK   54  A    between atoms: _140  and  _141
REMARK   55  A    between atoms: _140  and  _143
REMARK   56  A    between atoms: _143  and  _144
REMARK   57  A    between atoms: _149  and  _151
REMARK   58  A    between atoms: _151  and  _152
REMARK   59  A    between atoms: _151  and  _154
REMARK   60  A    between atoms: _157  and  _159
REMARK   61  A    between atoms: _159  and  _160
REMARK   62  A    between atoms: _159  and  _162
REMARK   63  A    between atoms: _162  and  _163
REMARK   64  A    between atoms: _169  and  _171
REMARK   65  A    between atoms: _171  and  _172
REMARK   66  A    between atoms: _171  and  _174
REMARK   67  A    between atoms: _174  and  _175
REMARK   68  A    between atoms: _180  and  _182
REMARK   69  A    between atoms: _182  and  _183
REMARK   70  A    between atoms: _182  and  _185
REMARK   71  A    between atoms: _185  and  _186
REMARK   72  A    between atoms: _191  and  _193
REMARK   73  A    between atoms: _193  and  _194
REMARK   74  A    between atoms: _193  and  _196
REMARK   75  A    between atoms: _196  and  _197
REMARK   76  A    between atoms: _202  and  _204
REMARK   77  A    between atoms: _204  and  _205
REMARK   78  A    between atoms: _204  and  _207
REMARK   79  A    between atoms: _207  and  _208
REMARK   80  A    between atoms: _213  and  _214
REMARK   81  A    between atoms: _216  and  _218
REMARK   82  A    between atoms: _218  and  _219
REMARK   83  A    between atoms: _218  and  _221
REMARK   84  A    between atoms: _221  and  _222
REMARK   85  A    between atoms: _227  and  _228
REMARK   86  A    between atoms: _230  and  _232
REMARK   87  A    between atoms: _232  and  _233
REMARK   88  A    between atoms: _232  and  _235
REMARK   89  A    between atoms: _235  and  _236
REMARK   90  A    between atoms: _236  and  _237
REMARK   91  A    between atoms: _239  and  _241
REMARK   92  A    between atoms: _241  and  _242
REMARK   93  A    between atoms: _241  and  _244
REMARK   94  A    between atoms: _244  and  _245
REMARK   95  A    between atoms: _255  and  _257
REMARK   96  A    between atoms: _257  and  _258
REMARK   97  A    between atoms: _257  and  _260
REMARK   98  A    between atoms: _260  and  _261
REMARK   99  A    between atoms: _264  and  _266
REMARK  100  A    between atoms: _266  and  _267
REMARK  101  A    between atoms: _266  and  _269
REMARK  102  A    between atoms: _269  and  _270
REMARK  103  A    between atoms: _270  and  _271
REMARK  104  A    between atoms: _274  and  _276
REMARK  105  A    between atoms: _276  and  _277
REMARK  106  A    between atoms: _276  and  _279
REMARK  107  A    between atoms: _279  and  _280
REMARK  108  A    between atoms: _285  and  _287
REMARK  109  A    between atoms: _287  and  _288
REMARK  110  A    between atoms: _290  and  _292
REMARK  111  A    between atoms: _292  and  _293
REMARK  112  A    between atoms: _296  and  _298
REMARK  113  A    between atoms: _298  and  _299
REMARK  114  A    between atoms: _302  and  _304
REMARK  115  A    between atoms: _304  and  _305
REMARK  116  A    between atoms: _304  and  _307
REMARK  117  A    between atoms: _307  and  _308
REMARK  118  A    between atoms: _318  and  _320
REMARK  119  A    between atoms: _320  and  _321
REMARK  120  A    between atoms: _320  and  _323
REMARK  121  A    between atoms: _323  and  _324
REMARK  122  A    between atoms: _326  and  _328
REMARK  123  A    between atoms: _328  and  _329
REMARK  124  A    between atoms: _328  and  _331
REMARK  125  A    between atoms: _331  and  _332
REMARK  126  A    between atoms: _337  and  _339
REMARK  127  A    between atoms: _339  and  _340
REMARK  128  A    between atoms: _339  and  _342
REMARK  129  A    between atoms: _342  and  _343
REMARK  130  A    between atoms: _349  and  _351
REMARK  131  A    between atoms: _351  and  _352
REMARK  132  A    between atoms: _351  and  _354
REMARK  133  A    between atoms: _354  and  _355
REMARK  134  A    between atoms: _355  and  _356
REMARK  135  A    between atoms: _359  and  _361
REMARK  136  A    between atoms: _361  and  _362
REMARK  137  A    between atoms: _361  and  _364
REMARK  138  A    between atoms: _364  and  _365
REMARK  139  A    between atoms: _375  and  _377
REMARK  140  A    between atoms: _377  and  _378
REMARK  141  A    between atoms: _377  and  _380
REMARK  142  A    between atoms: _380  and  _381
REMARK  143  A    between atoms: _381  and  _382
REMARK  144  A    between atoms: _385  and  _387
REMARK  145  A    between atoms: _387  and  _388
REMARK  146  A    between atoms: _387  and  _390
REMARK  147  A    between atoms: _390  and  _391
REMARK  148  A    between atoms: _391  and  _392
REMARK  149  A    between atoms: _392  and  _393
REMARK  150  A    between atoms: _393  and  _394
REMARK  151  A    between atoms: _398  and  _400
REMARK  152  A    between atoms: _400  and  _401
REMARK  153  A    between atoms: _400  and  _403
REMARK  154  A    between atoms: _403  and  _404
REMARK                            x       y       z     vdW  Elec       q    Type
REMARK                         _______ _______ _______ _____ _____    ______ ____
ROOT
ATOM      1  CG  TRP A   1      -7.121   3.250  12.337  0.00  0.00    -0.002 A 
ATOM      2  CD1 TRP A   1      -6.286   2.175  12.298  0.00  0.00    +0.068 A 
ATOM      3  NE1 TRP A   1      -5.082   2.528  11.761  0.00  0.00    -0.352 N 
ATOM      4  HE1 TRP A   1      -4.282   1.884  11.597  0.00  0.00    +0.166 HD
ATOM      5  CE2 TRP A   1      -5.097   3.870  11.473  0.00  0.00    +0.056 A 
ATOM      6  CZ2 TRP A   1      -4.094   4.691  10.920  0.00  0.00    +0.017 A 
ATOM      7  CH2 TRP A   1      -4.399   6.030  10.710  0.00  0.00    +0.001 A 
ATOM      8  CZ3 TRP A   1      -5.669   6.555  11.065  0.00  0.00    +0.000 A 
ATOM      9  CE3 TRP A   1      -6.664   5.722  11.610  0.00  0.00    +0.001 A 
ATOM     10  CD2 TRP A   1      -6.372   4.362  11.825  0.00  0.00    +0.013 A 
ENDROOT
BRANCH   1  11
ATOM     11  CB  TRP A   1      -8.546   3.271  12.868  0.00  0.00    +0.053 C 
BRANCH  11  12
ATOM     12  CA  TRP A   1      -9.112   1.865  13.115  0.00  0.00    +0.137 C 
BRANCH  12  13
ATOM     13  N   TRP A   1      -9.208   1.130  11.865  0.00  0.00    -0.239 NA
ATOM     14  H   TRP A   1      -9.301   1.657  10.973  0.00  0.00    +0.142 HD
ENDBRANCH  12  13
BRANCH  12  15
ATOM     15  C   TRP A   1     -10.494   1.952  13.773  0.00  0.00    +0.224 C 
ATOM     16  O   TRP A   1     -11.461   2.363  13.132  0.00  0.00    -0.287 OA
ENDBRANCH  12  15
ENDBRANCH  11  12
ENDBRANCH   1  11
TORSDOF 4
REMARK  Name = ../refined-set-2016/2j7h/2j7h_pocket.pdb
REMARK  154 active torsions:
REMARK  status: ('A' for Active; 'I' for Inactive)
REMARK    1  A    between atoms: _1  and  _3
REMARK    2  A    between atoms: _3  and  _4
REMARK    3  A    between atoms: _7  and  _9
REMARK    4  A    between atoms: _9  and  _10
REMARK    5  A    between atoms: _9  and  _12
REMARK    6  A    between atoms: _12  and  _13
REMARK    7  A    between atoms: _16  and  _18
REMARK    8  A    between atoms: _18  and  _19
REMARK    9  A    between atoms: _22  and  _24
REMARK   10  A    between atoms: _24  and  _25
REMARK   11  A    between atoms: _24  and  _27
REMARK   12  A    between atoms: _27  and  _28
REMARK   13  A    between atoms: _30  and  _32
REMARK   14  A    between atoms: _32  and  _33
REMARK   15  A    between atoms: _32  and  _35
REMARK   16  A    between atoms: _35  and  _36
REMARK   17  A    between atoms: _41  and  _42
REMARK   18  A    between atoms: _44  and  _46
REMARK   19  A    between atoms: _46  and  _47
REMARK   20  A    between atoms: _46  and  _49
REMARK   21  A    between atoms: _49  and  _50
REMARK   22  A    between atoms: _50  and  _51
REMARK   23  A    between atoms: _56  and  _58
REMARK   24  A    between atoms: _58  and  _59
REMARK   25  A    between atoms: _58  and  _61
REMARK   26  A    between atoms: _61  and  _62
REMARK   27  A    between atoms: _62  and  _63
REMARK   28  A    between atoms: _63  and  _64
REMARK   29  A    between atoms: _73  and  _75
REMARK   30  A    between atoms: _75  and  _76
REMARK   31  A    between atoms: _75  and  _78
REMARK   32  A    between atoms: _78  and  _79
REMARK   33  A    between atoms: _82  and  _84
REMARK   34  A    between atoms: _84  and  _85
REMARK   35  A    between atoms: _84  and  _87
REMARK   36  A    between atoms: _87  and  _88
REMARK   37  A    between atoms: _93  and  _95
REMARK   38  A    between atoms: _95  and  _96
REMARK   39  A    between atoms: _95  and  _98
REMARK   40  A    between atoms: _98  and  _99
REMARK   41  A    between atoms: _109  and  _111
REMARK   42  A    between atoms: _111  and  _112
REMARK   43  A    between atoms: _111  and  _114
REMARK   44  A    between atoms: _114  and  _115
REMARK   45  A    between atoms: _120  and  _122
REMARK   46  A    between atoms: _122  and  _123
REMARK   47  A    between atoms: _122  and  _125
REMARK   48  A    between atoms: _125  and  _126
REMARK   49  A    between atoms: _126  and  _127
REMARK   50  A    between atoms: _130  and  _132
REMARK   51  A    between atoms: _132  and  _133
REMARK   52  A    between atoms: _132  and  _135
REMARK   53  A    between atoms: _138  and  _140
REMARK   54  A    between atoms: _140  and  _141
REMARK   55  A    between atoms: _140  and  _143
REMARK   56  A    between atoms: _143  and  _144
REMARK   57  A    between atoms: _149  and  _151
REMARK   58  A    between atoms: _151  and  _152
REMARK   59  A    between atoms: _151  and  _154
REMARK   60  A    between atoms: _157  and  _159
REMARK   61  A    between atoms: _159  and  _160
REMARK   62  A    between atoms: _159  and  _162
REMARK   63  A    between atoms: _162  and  _163
REMARK   64  A    between atoms: _169  and  _171
REMARK   65  A    between atoms: _171  and  _172
REMARK   66  A    between atoms: _171  and  _174
REMARK   67  A    between atoms: _174  and  _175
REMARK   68  A    between atoms: _180  and  _182
REMARK   69  A    between atoms: _182  and  _183
REMARK   70  A    between atoms: _182  and  _185
REMARK   71  A    between atoms: _185  and  _186
REMARK   72  A    between atoms: _191  and  _193
REMARK   73  A    between atoms: _193  and  _194
REMARK   74  A    between atoms: _193  and  _196
REMARK   75  A    between atoms: _196  and  _197
REMARK   76  A    between atoms: _202  and  _204
REMARK   77  A    between atoms: _204  and  _205
REMARK   78  A    between atoms: _204  and  _207
REMARK   79  A    between atoms: _207  and  _208
REMARK   80  A    between atoms: _213  and  _214
REMARK   81  A    between atoms: _216  and  _218
REMARK   82  A    between atoms: _218  and  _219
REMARK   83  A    between atoms: _218  and  _221
REMARK   84  A    between atoms: _221  and  _222
REMARK   85  A    between atoms: _227  and  _228
REMARK   86  A    between atoms: _230  and  _232
REMARK   87  A    between atoms: _232  and  _233
REMARK   88  A    between atoms: _232  and  _235
REMARK   89  A    between atoms: _235  and  _236
REMARK   90  A    between atoms: _236  and  _237
REMARK   91  A    between atoms: _239  and  _241
REMARK   92  A    between atoms: _241  and  _242
REMARK   93  A    between atoms: _241  and  _244
REMARK   94  A    between atoms: _244  and  _245
REMARK   95  A    between atoms: _255  and  _257
REMARK   96  A    between atoms: _257  and  _258
REMARK   97  A    between atoms: _257  and  _260
REMARK   98  A    between atoms: _260  and  _261
REMARK   99  A    between atoms: _264  and  _266
REMARK  100  A    between atoms: _266  and  _267
REMARK  101  A    between atoms: _266  and  _269
REMARK  102  A    between atoms: _269  and  _270
REMARK  103  A    between atoms: _270  and  _271
REMARK  104  A    between atoms: _274  and  _276
REMARK  105  A    between atoms: _276  and  _277
REMARK  106  A    between atoms: _276  and  _279
REMARK  107  A    between atoms: _279  and  _280
REMARK  108  A    between atoms: _285  and  _287
REMARK  109  A    between atoms: _287  and  _288
REMARK  110  A    between atoms: _290  and  _292
REMARK  111  A    between atoms: _292  and  _293
REMARK  112  A    between atoms: _296  and  _298
REMARK  113  A    between atoms: _298  and  _299
REMARK  114  A    between atoms: _302  and  _304
REMARK  115  A    between atoms: _304  and  _305
REMARK  116  A    between atoms: _304  and  _307
REMARK  117  A    between atoms: _307  and  _308
REMARK  118  A    between atoms: _318  and  _320
REMARK  119  A    between atoms: _320  and  _321
REMARK  120  A    between atoms: _320  and  _323
REMARK  121  A    between atoms: _323  and  _324
REMARK  122  A    between atoms: _326  and  _328
REMARK  123  A    between atoms: _328  and  _329
REMARK  124  A    between atoms: _328  and  _331
REMARK  125  A    between atoms: _331  and  _332
REMARK  126  A    between atoms: _337  and  _339
REMARK  127  A    between atoms: _339  and  _340
REMARK  128  A    between atoms: _339  and  _342
REMARK  129  A    between atoms: _342  and  _343
REMARK  130  A    between atoms: _349  and  _351
REMARK  131  A    between atoms: _351  and  _352
REMARK  132  A    between atoms: _351  and  _354
REMARK  133  A    between atoms: _354  and  _355
REMARK  134  A    between atoms: _355  and  _356
REMARK  135  A    between atoms: _359  and  _361
REMARK  136  A    between atoms: _361  and  _362
REMARK  137  A    between atoms: _361  and  _364
REMARK  138  A    between atoms: _364  and  _365
REMARK  139  A    between atoms: _375  and  _377
REMARK  140  A    between atoms: _377  and  _378
REMARK  141  A    between atoms: _377  and  _380
REMARK  142  A    between atoms: _380  and  _381
REMARK  143  A    between atoms: _381  and  _382
REMARK  144  A    between atoms: _385  and  _387
REMARK  145  A    between atoms: _387  and  _388
REMARK  146  A    between atoms: _387  and  _390
REMARK  147  A    between atoms: _390  and  _391
REMARK  148  A    between atoms: _391  and  _392
REMARK  149  A    between atoms: _392  and  _393
REMARK  150  A    between atoms: _393  and  _394
REMARK  151  A    between atoms: _398  and  _400
REMARK  152  A    between atoms: _400  and  _401
REMARK  153  A    between atoms: _400  and  _403
REMARK  154  A    between atoms: _403  and  _404
REMARK                            x       y       z     vdW  Elec       q    Type
REMARK                         _______ _______ _______ _____ _____    ______ ____
ROOT
ATOM      1  CA  ASN A   3      -8.385  14.312  13.222  0.00  0.00    +0.158 C 
ENDROOT
BRANCH   1   2
ATOM      2  C   ASN A   3      -9.079  14.100  11.899  0.00  0.00    +0.241 C 
ATOM      3  N   GLY A   4      -9.409  12.861  11.594  0.00  0.00    -0.295 N 
ATOM      4  H   GLY A   4      -9.206  12.094  12.266  0.00  0.00    +0.150 HD
ATOM      5  O   ASN A   3      -9.287  15.061  11.145  0.00  0.00    -0.273 OA
BRANCH   3   6
ATOM      6  CA  GLY A   4     -10.054  12.557  10.326  0.00  0.00    +0.176 C 
BRANCH   6   7
ATOM      7  C   GLY A   4     -10.192  11.062  10.190  0.00  0.00    +0.243 C 
ATOM      8  O   GLY A   4      -9.899  10.327  11.129  0.00  0.00    -0.273 OA
ATOM      9  N   ALA A   5     -10.670  10.607   9.034  0.00  0.00    -0.297 N 
ATOM     10  H   ALA A   5     -10.852  11.279   8.261  0.00  0.00    +0.150 HD
BRANCH   9  11
ATOM     11  CA  ALA A   5     -10.948   9.178   8.821  0.00  0.00    +0.149 C 
ATOM     12  CB  ALA A   5     -12.336   8.829   9.333  0.00  0.00    +0.031 C 
BRANCH  11  13
ATOM     13  C   ALA A   5     -10.849   8.792   7.355  0.00  0.00    +0.241 C 
ATOM     14  N   ALA A   6     -10.489   7.527   7.125  0.00  0.00    -0.298 N 
ATOM     15  H   ALA A   6     -10.258   6.913   7.932  0.00  0.00    +0.150 HD
ATOM     16  O   ALA A   5     -11.119   9.612   6.464  0.00  0.00    -0.273 OA
BRANCH  14  17
ATOM     17  CA  ALA A   6     -10.411   6.985   5.784  0.00  0.00    +0.137 C 
ATOM     18  CB  ALA A   6      -9.153   6.146   5.638  0.00  0.00    +0.030 C 
BRANCH  17  19
ATOM     19  C   ALA A   6     -11.636   6.116   5.561  0.00  0.00    +0.227 C 
ATOM     20  O   ALA A   6     -11.899   5.201   6.357  0.00  0.00    -0.286 OA
ENDBRANCH  17  19
ENDBRANCH  14  17
ENDBRANCH  11  13
ENDBRANCH   9  11
ENDBRANCH   6   7
ENDBRANCH   3   6
ENDBRANCH   1   2
BRANCH   1  23
ATOM     21  C   GLU A   2      -6.185  15.398  13.583  0.00  0.00    +0.241 C 
ATOM     22  O   GLU A   2      -6.008  14.905  14.690  0.00  0.00    -0.273 OA
ATOM     23  N   ASN A   3      -7.304  15.255  12.875  0.00  0.00    -0.297 N 
ATOM     24  H   ASN A   3      -7.423  15.844  12.026  0.00  0.00    +0.150 HD
BRANCH  21  25
ATOM     25  CA  GLU A   2      -5.100  16.210  12.910  0.00  0.00    +0.149 C 
BRANCH  25  27
ATOM     26  C   THR A   1      -3.857  18.281  13.481  0.00  0.00    +0.241 C 
ATOM     27  N   GLU A   2      -4.494  17.164  13.848  0.00  0.00    -0.297 N 
ATOM     28  H   GLU A   2      -4.565  16.957  14.865  0.00  0.00    +0.150 HD
ATOM     29  O   THR A   1      -3.538  18.537  12.319  0.00  0.00    -0.274 OA
BRANCH  26  30
ATOM     30  CA  THR A   1      -3.506  19.280  14.598  0.00  0.00    +0.172 C 
BRANCH  30  31
ATOM     31  CB  THR A   1      -1.965  19.365  14.794  0.00  0.00    +0.135 C 
ATOM     32  CG2 THR A   1      -1.570  20.731  15.387  0.00  0.00    +0.034 C 
BRANCH  31  33
ATOM     33  OG1 THR A   1      -1.580  18.346  15.724  0.00  0.00    -0.383 OA
ATOM     34  HG1 THR A   1      -1.831  17.459  15.362  0.00  0.00    +0.210 HD
ENDBRANCH  31  33
ENDBRANCH  30  31
BRANCH  30  35
ATOM     35  N   THR A   1      -4.174  18.994  15.889  0.00  0.00    -0.236 NA
ATOM     36  H   THR A   1      -3.700  18.384  16.586  0.00  0.00    +0.142 HD
ENDBRANCH  30  35
ENDBRANCH  26  30
ENDBRANCH  25  27
BRANCH  25  37
ATOM     37  CB  GLU A   2      -4.083  15.190  12.356  0.00  0.00    +0.041 C 
BRANCH  37  38
ATOM     38  CG  GLU A   2      -2.909  15.774  11.608  0.00  0.00    +0.116 C 
BRANCH  38  39
ATOM     39  CD  GLU A   2      -1.935  14.706  11.104  0.00  0.00    +0.365 C 
ATOM     40  OE2 GLU A   2      -2.332  13.513  10.987  0.00  0.00    -0.246 OA
ATOM     41  OE1 GLU A   2      -0.781  15.089  10.817  0.00  0.00    -0.246 OA
ENDBRANCH  38  39
ENDBRANCH  37  38
ENDBRANCH  25  37
ENDBRANCH  21  25
ENDBRANCH   1  23
BRANCH   1  42
ATOM     42  CB  ASN A   3      -9.348  14.932  14.259  0.00  0.00    +0.114 C 
BRANCH  42  43
ATOM     43  CG  ASN A   3     -10.508  14.022  14.642  0.00  0.00    +0.222 C 
ATOM     44  ND2 ASN A   3     -10.209  12.886  15.248  0.00  0.00    -0.329 N 
ATOM     45 HD21 ASN A   3     -10.968  12.249  15.562  0.00  0.00    +0.145 HD
ATOM     46 HD22 ASN A   3      -9.214  12.629  15.410  0.00  0.00    +0.145 HD
ATOM     47  OD1 ASN A   3     -11.679  14.381  14.421  0.00  0.00    -0.275 OA
ENDBRANCH  42  43
ENDBRANCH   1  42
TORSDOF 19
REMARK  Name = ../refined-set-2016/2j7h/2j7h_pocket.pdb
REMARK  154 active torsions:
REMARK  status: ('A' for Active; 'I' for Inactive)
REMARK    1  A    between atoms: _1  and  _3
REMARK    2  A    between atoms: _3  and  _4
REMARK    3  A    between atoms: _7  and  _9
REMARK    4  A    between atoms: _9  and  _10
REMARK    5  A    between atoms: _9  and  _12
REMARK    6  A    between atoms: _12  and  _13
REMARK    7  A    between atoms: _16  and  _18
REMARK    8  A    between atoms: _18  and  _19
REMARK    9  A    between atoms: _22  and  _24
REMARK   10  A    between atoms: _24  and  _25
REMARK   11  A    between atoms: _24  and  _27
REMARK   12  A    between atoms: _27  and  _28
REMARK   13  A    between atoms: _30  and  _32
REMARK   14  A    between atoms: _32  and  _33
REMARK   15  A    between atoms: _32  and  _35
REMARK   16  A    between atoms: _35  and  _36
REMARK   17  A    between atoms: _41  and  _42
REMARK   18  A    between atoms: _44  and  _46
REMARK   19  A    between atoms: _46  and  _47
REMARK   20  A    between atoms: _46  and  _49
REMARK   21  A    between atoms: _49  and  _50
REMARK   22  A    between atoms: _50  and  _51
REMARK   23  A    between atoms: _56  and  _58
REMARK   24  A    between atoms: _58  and  _59
REMARK   25  A    between atoms: _58  and  _61
REMARK   26  A    between atoms: _61  and  _62
REMARK   27  A    between atoms: _62  and  _63
REMARK   28  A    between atoms: _63  and  _64
REMARK   29  A    between atoms: _73  and  _75
REMARK   30  A    between atoms: _75  and  _76
REMARK   31  A    between atoms: _75  and  _78
REMARK   32  A    between atoms: _78  and  _79
REMARK   33  A    between atoms: _82  and  _84
REMARK   34  A    between atoms: _84  and  _85
REMARK   35  A    between atoms: _84  and  _87
REMARK   36  A    between atoms: _87  and  _88
REMARK   37  A    between atoms: _93  and  _95
REMARK   38  A    between atoms: _95  and  _96
REMARK   39  A    between atoms: _95  and  _98
REMARK   40  A    between atoms: _98  and  _99
REMARK   41  A    between atoms: _109  and  _111
REMARK   42  A    between atoms: _111  and  _112
REMARK   43  A    between atoms: _111  and  _114
REMARK   44  A    between atoms: _114  and  _115
REMARK   45  A    between atoms: _120  and  _122
REMARK   46  A    between atoms: _122  and  _123
REMARK   47  A    between atoms: _122  and  _125
REMARK   48  A    between atoms: _125  and  _126
REMARK   49  A    between atoms: _126  and  _127
REMARK   50  A    between atoms: _130  and  _132
REMARK   51  A    between atoms: _132  and  _133
REMARK   52  A    between atoms: _132  and  _135
REMARK   53  A    between atoms: _138  and  _140
REMARK   54  A    between atoms: _140  and  _141
REMARK   55  A    between atoms: _140  and  _143
REMARK   56  A    between atoms: _143  and  _144
REMARK   57  A    between atoms: _149  and  _151
REMARK   58  A    between atoms: _151  and  _152
REMARK   59  A    between atoms: _151  and  _154
REMARK   60  A    between atoms: _157  and  _159
REMARK   61  A    between atoms: _159  and  _160
REMARK   62  A    between atoms: _159  and  _162
REMARK   63  A    between atoms: _162  and  _163
REMARK   64  A    between atoms: _169  and  _171
REMARK   65  A    between atoms: _171  and  _172
REMARK   66  A    between atoms: _171  and  _174
REMARK   67  A    between atoms: _174  and  _175
REMARK   68  A    between atoms: _180  and  _182
REMARK   69  A    between atoms: _182  and  _183
REMARK   70  A    between atoms: _182  and  _185
REMARK   71  A    between atoms: _185  and  _186
REMARK   72  A    between atoms: _191  and  _193
REMARK   73  A    between atoms: _193  and  _194
REMARK   74  A    between atoms: _193  and  _196
REMARK   75  A    between atoms: _196  and  _197
REMARK   76  A    between atoms: _202  and  _204
REMARK   77  A    between atoms: _204  and  _205
REMARK   78  A    between atoms: _204  and  _207
REMARK   79  A    between atoms: _207  and  _208
REMARK   80  A    between atoms: _213  and  _214
REMARK   81  A    between atoms: _216  and  _218
REMARK   82  A    between atoms: _218  and  _219
REMARK   83  A    between atoms: _218  and  _221
REMARK   84  A    between atoms: _221  and  _222
REMARK   85  A    between atoms: _227  and  _228
REMARK   86  A    between atoms: _230  and  _232
REMARK   87  A    between atoms: _232  and  _233
REMARK   88  A    between atoms: _232  and  _235
REMARK   89  A    between atoms: _235  and  _236
REMARK   90  A    between atoms: _236  and  _237
REMARK   91  A    between atoms: _239  and  _241
REMARK   92  A    between atoms: _241  and  _242
REMARK   93  A    between atoms: _241  and  _244
REMARK   94  A    between atoms: _244  and  _245
REMARK   95  A    between atoms: _255  and  _257
REMARK   96  A    between atoms: _257  and  _258
REMARK   97  A    between atoms: _257  and  _260
REMARK   98  A    between atoms: _260  and  _261
REMARK   99  A    between atoms: _264  and  _266
REMARK  100  A    between atoms: _266  and  _267
REMARK  101  A    between atoms: _266  and  _269
REMARK  102  A    between atoms: _269  and  _270
REMARK  103  A    between atoms: _270  and  _271
REMARK  104  A    between atoms: _274  and  _276
REMARK  105  A    between atoms: _276  and  _277
REMARK  106  A    between atoms: _276  and  _279
REMARK  107  A    between atoms: _279  and  _280
REMARK  108  A    between atoms: _285  and  _287
REMARK  109  A    between atoms: _287  and  _288
REMARK  110  A    between atoms: _290  and  _292
REMARK  111  A    between atoms: _292  and  _293
REMARK  112  A    between atoms: _296  and  _298
REMARK  113  A    between atoms: _298  and  _299
REMARK  114  A    between atoms: _302  and  _304
REMARK  115  A    between atoms: _304  and  _305
REMARK  116  A    between atoms: _304  and  _307
REMARK  117  A    between atoms: _307  and  _308
REMARK  118  A    between atoms: _318  and  _320
REMARK  119  A    between atoms: _320  and  _321
REMARK  120  A    between atoms: _320  and  _323
REMARK  121  A    between atoms: _323  and  _324
REMARK  122  A    between atoms: _326  and  _328
REMARK  123  A    between atoms: _328  and  _329
REMARK  124  A    between atoms: _328  and  _331
REMARK  125  A    between atoms: _331  and  _332
REMARK  126  A    between atoms: _337  and  _339
REMARK  127  A    between atoms: _339  and  _340
REMARK  128  A    between atoms: _339  and  _342
REMARK  129  A    between atoms: _342  and  _343
REMARK  130  A    between atoms: _349  and  _351
REMARK  131  A    between atoms: _351  and  _352
REMARK  132  A    between atoms: _351  and  _354
REMARK  133  A    between atoms: _354  and  _355
REMARK  134  A    between atoms: _355  and  _356
REMARK  135  A    between atoms: _359  and  _361
REMARK  136  A    between atoms: _361  and  _362
REMARK  137  A    between atoms: _361  and  _364
REMARK  138  A    between atoms: _364  and  _365
REMARK  139  A    between atoms: _375  and  _377
REMARK  140  A    between atoms: _377  and  _378
REMARK  141  A    between atoms: _377  and  _380
REMARK  142  A    between atoms: _380  and  _381
REMARK  143  A    between atoms: _381  and  _382
REMARK  144  A    between atoms: _385  and  _387
REMARK  145  A    between atoms: _387  and  _388
REMARK  146  A    between atoms: _387  and  _390
REMARK  147  A    between atoms: _390  and  _391
REMARK  148  A    between atoms: _391  and  _392
REMARK  149  A    between atoms: _392  and  _393
REMARK  150  A    between atoms: _393  and  _394
REMARK  151  A    between atoms: _398  and  _400
REMARK  152  A    between atoms: _400  and  _401
REMARK  153  A    between atoms: _400  and  _403
REMARK  154  A    between atoms: _403  and  _404
REMARK                            x       y       z     vdW  Elec       q    Type
REMARK                         _______ _______ _______ _____ _____    ______ ____
ROOT
ATOM      1  CA  TRP A   1      -6.797  15.543   8.265  0.00  0.00    +0.149 C 
ENDROOT
BRANCH   1   2
ATOM      2  C   TRP A   1      -7.744  14.754   7.370  0.00  0.00    +0.239 C 
ATOM      3  O   TRP A   1      -8.402  13.832   7.869  0.00  0.00    -0.274 OA
ATOM      4  N   SER A   2      -7.840  15.069   6.081  0.00  0.00    -0.296 N 
ATOM      5  H   SER A   2      -8.584  14.588   5.537  0.00  0.00    +0.150 HD
BRANCH   4   6
ATOM      6  CA  SER A   2      -6.993  16.038   5.340  0.00  0.00    +0.166 C 
BRANCH   6   7
ATOM      7  C   SER A   2      -7.855  16.919   4.436  0.00  0.00    +0.229 C 
ATOM      8  O   SER A   2      -8.996  16.563   4.128  0.00  0.00    -0.286 OA
ENDBRANCH   6   7
BRANCH   6   9
ATOM      9  CB  SER A   2      -5.992  15.258   4.468  0.00  0.00    +0.165 C 
BRANCH   9  10
ATOM     10  OG  SER A   2      -5.083  16.123   3.755  0.00  0.00    -0.380 OA
ATOM     11  H   SER A   2      -4.565  16.662   4.404  0.00  0.00    +0.211 HD
ENDBRANCH   9  10
ENDBRANCH   6   9
ENDBRANCH   4   6
ENDBRANCH   1   2
BRANCH   1  12
ATOM     12  N   TRP A   1      -7.647  16.279   9.217  0.00  0.00    -0.238 NA
ATOM     13  H   TRP A   1      -7.986  15.816  10.084  0.00  0.00    +0.142 HD
ENDBRANCH   1  12
BRANCH   1  14
ATOM     14  CB  TRP A   1      -5.836  14.553   8.968  0.00  0.00    +0.054 C 
BRANCH  14  15
ATOM     15  CG  TRP A   1      -4.979  13.885   7.926  0.00  0.00    -0.002 A 
ATOM     16  CD2 TRP A   1      -3.746  14.383   7.410  0.00  0.00    +0.013 A 
ATOM     17  CE3 TRP A   1      -2.959  15.513   7.696  0.00  0.00    +0.001 A 
ATOM     18  CZ3 TRP A   1      -1.746  15.688   6.991  0.00  0.00    +0.000 A 
ATOM     19  CH2 TRP A   1      -1.354  14.782   5.973  0.00  0.00    +0.001 A 
ATOM     20  CZ2 TRP A   1      -2.113  13.688   5.663  0.00  0.00    +0.017 A 
ATOM     21  CE2 TRP A   1      -3.319  13.493   6.386  0.00  0.00    +0.056 A 
ATOM     22  NE1 TRP A   1      -4.264  12.499   6.286  0.00  0.00    -0.352 N 
ATOM     23  HE1 TRP A   1      -4.236  11.699   5.623  0.00  0.00    +0.166 HD
ATOM     24  CD1 TRP A   1      -5.268  12.745   7.225  0.00  0.00    +0.068 A 
ENDBRANCH  14  15
ENDBRANCH   1  14
TORSDOF 8
REMARK  Name = ../refined-set-2016/2j7h/2j7h_pocket.pdb
REMARK  154 active torsions:
REMARK  status: ('A' for Active; 'I' for Inactive)
REMARK    1  A    between atoms: _1  and  _3
REMARK    2  A    between atoms: _3  and  _4
REMARK    3  A    between atoms: _7  and  _9
REMARK    4  A    between atoms: _9  and  _10
REMARK    5  A    between atoms: _9  and  _12
REMARK    6  A    between atoms: _12  and  _13
REMARK    7  A    between atoms: _16  and  _18
REMARK    8  A    between atoms: _18  and  _19
REMARK    9  A    between atoms: _22  and  _24
REMARK   10  A    between atoms: _24  and  _25
REMARK   11  A    between atoms: _24  and  _27
REMARK   12  A    between atoms: _27  and  _28
REMARK   13  A    between atoms: _30  and  _32
REMARK   14  A    between atoms: _32  and  _33
REMARK   15  A    between atoms: _32  and  _35
REMARK   16  A    between atoms: _35  and  _36
REMARK   17  A    between atoms: _41  and  _42
REMARK   18  A    between atoms: _44  and  _46
REMARK   19  A    between atoms: _46  and  _47
REMARK   20  A    between atoms: _46  and  _49
REMARK   21  A    between atoms: _49  and  _50
REMARK   22  A    between atoms: _50  and  _51
REMARK   23  A    between atoms: _56  and  _58
REMARK   24  A    between atoms: _58  and  _59
REMARK   25  A    between atoms: _58  and  _61
REMARK   26  A    between atoms: _61  and  _62
REMARK   27  A    between atoms: _62  and  _63
REMARK   28  A    between atoms: _63  and  _64
REMARK   29  A    between atoms: _73  and  _75
REMARK   30  A    between atoms: _75  and  _76
REMARK   31  A    between atoms: _75  and  _78
REMARK   32  A    between atoms: _78  and  _79
REMARK   33  A    between atoms: _82  and  _84
REMARK   34  A    between atoms: _84  and  _85
REMARK   35  A    between atoms: _84  and  _87
REMARK   36  A    between atoms: _87  and  _88
REMARK   37  A    between atoms: _93  and  _95
REMARK   38  A    between atoms: _95  and  _96
REMARK   39  A    between atoms: _95  and  _98
REMARK   40  A    between atoms: _98  and  _99
REMARK   41  A    between atoms: _109  and  _111
REMARK   42  A    between atoms: _111  and  _112
REMARK   43  A    between atoms: _111  and  _114
REMARK   44  A    between atoms: _114  and  _115
REMARK   45  A    between atoms: _120  and  _122
REMARK   46  A    between atoms: _122  and  _123
REMARK   47  A    between atoms: _122  and  _125
REMARK   48  A    between atoms: _125  and  _126
REMARK   49  A    between atoms: _126  and  _127
REMARK   50  A    between atoms: _130  and  _132
REMARK   51  A    between atoms: _132  and  _133
REMARK   52  A    between atoms: _132  and  _135
REMARK   53  A    between atoms: _138  and  _140
REMARK   54  A    between atoms: _140  and  _141
REMARK   55  A    between atoms: _140  and  _143
REMARK   56  A    between atoms: _143  and  _144
REMARK   57  A    between atoms: _149  and  _151
REMARK   58  A    between atoms: _151  and  _152
REMARK   59  A    between atoms: _151  and  _154
REMARK   60  A    between atoms: _157  and  _159
REMARK   61  A    between atoms: _159  and  _160
REMARK   62  A    between atoms: _159  and  _162
REMARK   63  A    between atoms: _162  and  _163
REMARK   64  A    between atoms: _169  and  _171
REMARK   65  A    between atoms: _171  and  _172
REMARK   66  A    between atoms: _171  and  _174
REMARK   67  A    between atoms: _174  and  _175
REMARK   68  A    between atoms: _180  and  _182
REMARK   69  A    between atoms: _182  and  _183
REMARK   70  A    between atoms: _182  and  _185
REMARK   71  A    between atoms: _185  and  _186
REMARK   72  A    between atoms: _191  and  _193
REMARK   73  A    between atoms: _193  and  _194
REMARK   74  A    between atoms: _193  and  _196
REMARK   75  A    between atoms: _196  and  _197
REMARK   76  A    between atoms: _202  and  _204
REMARK   77  A    between atoms: _204  and  _205
REMARK   78  A    between atoms: _204  and  _207
REMARK   79  A    between atoms: _207  and  _208
REMARK   80  A    between atoms: _213  and  _214
REMARK   81  A    between atoms: _216  and  _218
REMARK   82  A    between atoms: _218  and  _219
REMARK   83  A    between atoms: _218  and  _221
REMARK   84  A    between atoms: _221  and  _222
REMARK   85  A    between atoms: _227  and  _228
REMARK   86  A    between atoms: _230  and  _232
REMARK   87  A    between atoms: _232  and  _233
REMARK   88  A    between atoms: _232  and  _235
REMARK   89  A    between atoms: _235  and  _236
REMARK   90  A    between atoms: _236  and  _237
REMARK   91  A    between atoms: _239  and  _241
REMARK   92  A    between atoms: _241  and  _242
REMARK   93  A    between atoms: _241  and  _244
REMARK   94  A    between atoms: _244  and  _245
REMARK   95  A    between atoms: _255  and  _257
REMARK   96  A    between atoms: _257  and  _258
REMARK   97  A    between atoms: _257  and  _260
REMARK   98  A    between atoms: _260  and  _261
REMARK   99  A    between atoms: _264  and  _266
REMARK  100  A    between atoms: _266  and  _267
REMARK  101  A    between atoms: _266  and  _269
REMARK  102  A    between atoms: _269  and  _270
REMARK  103  A    between atoms: _270  and  _271
REMARK  104  A    between atoms: _274  and  _276
REMARK  105  A    between atoms: _276  and  _277
REMARK  106  A    between atoms: _276  and  _279
REMARK  107  A    between atoms: _279  and  _280
REMARK  108  A    between atoms: _285  and  _287
REMARK  109  A    between atoms: _287  and  _288
REMARK  110  A    between atoms: _290  and  _292
REMARK  111  A    between atoms: _292  and  _293
REMARK  112  A    between atoms: _296  and  _298
REMARK  113  A    between atoms: _298  and  _299
REMARK  114  A    between atoms: _302  and  _304
REMARK  115  A    between atoms: _304  and  _305
REMARK  116  A    between atoms: _304  and  _307
REMARK  117  A    between atoms: _307  and  _308
REMARK  118  A    between atoms: _318  and  _320
REMARK  119  A    between atoms: _320  and  _321
REMARK  120  A    between atoms: _320  and  _323
REMARK  121  A    between atoms: _323  and  _324
REMARK  122  A    between atoms: _326  and  _328
REMARK  123  A    between atoms: _328  and  _329
REMARK  124  A    between atoms: _328  and  _331
REMARK  125  A    between atoms: _331  and  _332
REMARK  126  A    between atoms: _337  and  _339
REMARK  127  A    between atoms: _339  and  _340
REMARK  128  A    between atoms: _339  and  _342
REMARK  129  A    between atoms: _342  and  _343
REMARK  130  A    between atoms: _349  and  _351
REMARK  131  A    between atoms: _351  and  _352
REMARK  132  A    between atoms: _351  and  _354
REMARK  133  A    between atoms: _354  and  _355
REMARK  134  A    between atoms: _355  and  _356
REMARK  135  A    between atoms: _359  and  _361
REMARK  136  A    between atoms: _361  and  _362
REMARK  137  A    between atoms: _361  and  _364
REMARK  138  A    between atoms: _364  and  _365
REMARK  139  A    between atoms: _375  and  _377
REMARK  140  A    between atoms: _377  and  _378
REMARK  141  A    between atoms: _377  and  _380
REMARK  142  A    between atoms: _380  and  _381
REMARK  143  A    between atoms: _381  and  _382
REMARK  144  A    between atoms: _385  and  _387
REMARK  145  A    between atoms: _387  and  _388
REMARK  146  A    between atoms: _387  and  _390
REMARK  147  A    between atoms: _390  and  _391
REMARK  148  A    between atoms: _391  and  _392
REMARK  149  A    between atoms: _392  and  _393
REMARK  150  A    between atoms: _393  and  _394
REMARK  151  A    between atoms: _398  and  _400
REMARK  152  A    between atoms: _400  and  _401
REMARK  153  A    between atoms: _400  and  _403
REMARK  154  A    between atoms: _403  and  _404
REMARK                            x       y       z     vdW  Elec       q    Type
REMARK                         _______ _______ _______ _____ _____    ______ ____
ROOT
ATOM      1  C   PHE A   2      -0.469   9.062   0.823  0.00  0.00    +0.241 C 
ATOM      2  O   PHE A   2       0.221   9.726   1.589  0.00  0.00    -0.273 OA
ATOM      3  N   GLU A   3      -1.108   7.958   1.216  0.00  0.00    -0.297 N 
ATOM      4  H   GLU A   3      -1.601   7.368   0.516  0.00  0.00    +0.150 HD
ENDROOT
BRANCH   3   5
ATOM      5  CA  GLU A   3      -1.117   7.578   2.616  0.00  0.00    +0.149 C 
BRANCH   5   6
ATOM      6  C   GLU A   3       0.054   6.635   2.913  0.00  0.00    +0.241 C 
ATOM      7  O   GLU A   3      -0.138   5.491   3.313  0.00  0.00    -0.273 OA
ATOM      8  N   TRP A   4       1.284   7.134   2.691  0.00  0.00    -0.298 N 
ATOM      9  H   TRP A   4       1.382   8.043   2.195  0.00  0.00    +0.150 HD
BRANCH   8  10
ATOM     10  CA  TRP A   4       2.490   6.424   3.133  0.00  0.00    +0.141 C 
BRANCH  10  11
ATOM     11  C   TRP A   4       2.476   4.992   2.614  0.00  0.00    +0.227 C 
ATOM     12  O   TRP A   4       2.246   4.814   1.425  0.00  0.00    -0.286 OA
ENDBRANCH  10  11
BRANCH  10  13
ATOM     13  CB  TRP A   4       2.695   6.568   4.648  0.00  0.00    +0.056 C 
BRANCH  13  14
ATOM     14  CG  TRP A   4       2.628   8.058   5.086  0.00  0.00    -0.002 A 
ATOM     15  CD1 TRP A   4       1.672   8.647   5.885  0.00  0.00    +0.068 A 
ATOM     16  NE1 TRP A   4       1.955   9.999   6.029  0.00  0.00    -0.352 N 
ATOM     17  HE1 TRP A   4       1.401  10.672   6.596  0.00  0.00    +0.166 HD
ATOM     18  CE2 TRP A   4       3.083  10.309   5.305  0.00  0.00    +0.056 A 
ATOM     19  CZ2 TRP A   4       3.747  11.543   5.129  0.00  0.00    +0.017 A 
ATOM     20  CH2 TRP A   4       4.854  11.564   4.329  0.00  0.00    +0.001 A 
ATOM     21  CZ3 TRP A   4       5.338  10.386   3.708  0.00  0.00    +0.000 A 
ATOM     22  CE3 TRP A   4       4.672   9.175   3.859  0.00  0.00    +0.001 A 
ATOM     23  CD2 TRP A   4       3.520   9.122   4.674  0.00  0.00    +0.013 A 
ENDBRANCH  13  14
ENDBRANCH  10  13
ENDBRANCH   8  10
ENDBRANCH   5   6
BRANCH   5  24
ATOM     24  CB  GLU A   3      -2.501   7.021   3.035  0.00  0.00    +0.041 C 
BRANCH  24  25
ATOM     25  CG  GLU A   3      -2.579   6.467   4.474  0.00  0.00    +0.116 C 
BRANCH  25  26
ATOM     26  CD  GLU A   3      -2.237   7.479   5.547  0.00  0.00    +0.365 C 
ATOM     27  OE2 GLU A   3      -1.753   7.040   6.612  0.00  0.00    -0.246 OA
ATOM     28  OE1 GLU A   3      -2.469   8.703   5.359  0.00  0.00    -0.246 OA
ENDBRANCH  25  26
ENDBRANCH  24  25
ENDBRANCH   5  24
ENDBRANCH   3   5
BRANCH   1  29
ATOM     29  CA  PHE A   2      -0.580   9.435  -0.655  0.00  0.00    +0.153 C 
BRANCH  29  32
ATOM     30  C   ASN A   1      -2.765  10.560  -0.645  0.00  0.00    +0.239 C 
ATOM     31  O   ASN A   1      -3.343   9.544  -0.406  0.00  0.00    -0.274 OA
ATOM     32  N   PHE A   2      -1.449  10.618  -0.844  0.00  0.00    -0.297 N 
ATOM     33  H   PHE A   2      -1.021  11.518  -1.140  0.00  0.00    +0.150 HD
BRANCH  30  34
ATOM     34  CA  ASN A   1      -3.537  11.855  -0.812  0.00  0.00    +0.154 C 
BRANCH  34  35
ATOM     35  N   ASN A   1      -4.955  11.700  -0.460  0.00  0.00    -0.238 NA
ATOM     36  H   ASN A   1      -5.281  10.950   0.183  0.00  0.00    +0.142 HD
ENDBRANCH  34  35
BRANCH  34  37
ATOM     37  CB  ASN A   1      -2.922  13.005   0.002  0.00  0.00    +0.111 C 
BRANCH  37  38
ATOM     38  CG  ASN A   1      -3.007  12.759   1.479  0.00  0.00    +0.221 C 
ATOM     39  ND2 ASN A   1      -3.637  13.682   2.209  0.00  0.00    -0.329 N 
ATOM     40 HD21 ASN A   1      -3.758  13.542   3.232  0.00  0.00    +0.145 HD
ATOM     41 HD22 ASN A   1      -4.007  14.541   1.754  0.00  0.00    +0.145 HD
ATOM     42  OD1 ASN A   1      -2.551  11.727   1.963  0.00  0.00    -0.275 OA
ENDBRANCH  37  38
ENDBRANCH  34  37
ENDBRANCH  30  34
ENDBRANCH  29  32
BRANCH  29  43
ATOM     43  CB  PHE A   2       0.792   9.767  -1.259  0.00  0.00    +0.055 C 
BRANCH  43  44
ATOM     44  CG  PHE A   2       1.844   8.731  -1.042  0.00  0.00    -0.020 A 
ATOM     45  CD2 PHE A   2       2.807   8.909  -0.032  0.00  0.00    -0.004 A 
ATOM     46  CE2 PHE A   2       3.824   7.945   0.152  0.00  0.00    -0.000 A 
ATOM     47  CZ  PHE A   2       3.893   6.834  -0.739  0.00  0.00    -0.000 A 
ATOM     48  CE1 PHE A   2       2.959   6.691  -1.747  0.00  0.00    -0.000 A 
ATOM     49  CD1 PHE A   2       1.952   7.640  -1.910  0.00  0.00    -0.004 A 
ENDBRANCH  43  44
ENDBRANCH  29  43
ENDBRANCH   1  29
TORSDOF 17
REMARK  Name = ../refined-set-2016/2j7h/2j7h_pocket.pdb
REMARK  154 active torsions:
REMARK  status: ('A' for Active; 'I' for Inactive)
REMARK    1  A    between atoms: _1  and  _3
REMARK    2  A    between atoms: _3  and  _4
REMARK    3  A    between atoms: _7  and  _9
REMARK    4  A    between atoms: _9  and  _10
REMARK    5  A    between atoms: _9  and  _12
REMARK    6  A    between atoms: _12  and  _13
REMARK    7  A    between atoms: _16  and  _18
REMARK    8  A    between atoms: _18  and  _19
REMARK    9  A    between atoms: _22  and  _24
REMARK   10  A    between atoms: _24  and  _25
REMARK   11  A    between atoms: _24  and  _27
REMARK   12  A    between atoms: _27  and  _28
REMARK   13  A    between atoms: _30  and  _32
REMARK   14  A    between atoms: _32  and  _33
REMARK   15  A    between atoms: _32  and  _35
REMARK   16  A    between atoms: _35  and  _36
REMARK   17  A    between atoms: _41  and  _42
REMARK   18  A    between atoms: _44  and  _46
REMARK   19  A    between atoms: _46  and  _47
REMARK   20  A    between atoms: _46  and  _49
REMARK   21  A    between atoms: _49  and  _50
REMARK   22  A    between atoms: _50  and  _51
REMARK   23  A    between atoms: _56  and  _58
REMARK   24  A    between atoms: _58  and  _59
REMARK   25  A    between atoms: _58  and  _61
REMARK   26  A    between atoms: _61  and  _62
REMARK   27  A    between atoms: _62  and  _63
REMARK   28  A    between atoms: _63  and  _64
REMARK   29  A    between atoms: _73  and  _75
REMARK   30  A    between atoms: _75  and  _76
REMARK   31  A    between atoms: _75  and  _78
REMARK   32  A    between atoms: _78  and  _79
REMARK   33  A    between atoms: _82  and  _84
REMARK   34  A    between atoms: _84  and  _85
REMARK   35  A    between atoms: _84  and  _87
REMARK   36  A    between atoms: _87  and  _88
REMARK   37  A    between atoms: _93  and  _95
REMARK   38  A    between atoms: _95  and  _96
REMARK   39  A    between atoms: _95  and  _98
REMARK   40  A    between atoms: _98  and  _99
REMARK   41  A    between atoms: _109  and  _111
REMARK   42  A    between atoms: _111  and  _112
REMARK   43  A    between atoms: _111  and  _114
REMARK   44  A    between atoms: _114  and  _115
REMARK   45  A    between atoms: _120  and  _122
REMARK   46  A    between atoms: _122  and  _123
REMARK   47  A    between atoms: _122  and  _125
REMARK   48  A    between atoms: _125  and  _126
REMARK   49  A    between atoms: _126  and  _127
REMARK   50  A    between atoms: _130  and  _132
REMARK   51  A    between atoms: _132  and  _133
REMARK   52  A    between atoms: _132  and  _135
REMARK   53  A    between atoms: _138  and  _140
REMARK   54  A    between atoms: _140  and  _141
REMARK   55  A    between atoms: _140  and  _143
REMARK   56  A    between atoms: _143  and  _144
REMARK   57  A    between atoms: _149  and  _151
REMARK   58  A    between atoms: _151  and  _152
REMARK   59  A    between atoms: _151  and  _154
REMARK   60  A    between atoms: _157  and  _159
REMARK   61  A    between atoms: _159  and  _160
REMARK   62  A    between atoms: _159  and  _162
REMARK   63  A    between atoms: _162  and  _163
REMARK   64  A    between atoms: _169  and  _171
REMARK   65  A    between atoms: _171  and  _172
REMARK   66  A    between atoms: _171  and  _174
REMARK   67  A    between atoms: _174  and  _175
REMARK   68  A    between atoms: _180  and  _182
REMARK   69  A    between atoms: _182  and  _183
REMARK   70  A    between atoms: _182  and  _185
REMARK   71  A    between atoms: _185  and  _186
REMARK   72  A    between atoms: _191  and  _193
REMARK   73  A    between atoms: _193  and  _194
REMARK   74  A    between atoms: _193  and  _196
REMARK   75  A    between atoms: _196  and  _197
REMARK   76  A    between atoms: _202  and  _204
REMARK   77  A    between atoms: _204  and  _205
REMARK   78  A    between atoms: _204  and  _207
REMARK   79  A    between atoms: _207  and  _208
REMARK   80  A    between atoms: _213  and  _214
REMARK   81  A    between atoms: _216  and  _218
REMARK   82  A    between atoms: _218  and  _219
REMARK   83  A    between atoms: _218  and  _221
REMARK   84  A    between atoms: _221  and  _222
REMARK   85  A    between atoms: _227  and  _228
REMARK   86  A    between atoms: _230  and  _232
REMARK   87  A    between atoms: _232  and  _233
REMARK   88  A    between atoms: _232  and  _235
REMARK   89  A    between atoms: _235  and  _236
REMARK   90  A    between atoms: _236  and  _237
REMARK   91  A    between atoms: _239  and  _241
REMARK   92  A    between atoms: _241  and  _242
REMARK   93  A    between atoms: _241  and  _244
REMARK   94  A    between atoms: _244  and  _245
REMARK   95  A    between atoms: _255  and  _257
REMARK   96  A    between atoms: _257  and  _258
REMARK   97  A    between atoms: _257  and  _260
REMARK   98  A    between atoms: _260  and  _261
REMARK   99  A    between atoms: _264  and  _266
REMARK  100  A    between atoms: _266  and  _267
REMARK  101  A    between atoms: _266  and  _269
REMARK  102  A    between atoms: _269  and  _270
REMARK  103  A    between atoms: _270  and  _271
REMARK  104  A    between atoms: _274  and  _276
REMARK  105  A    between atoms: _276  and  _277
REMARK  106  A    between atoms: _276  and  _279
REMARK  107  A    between atoms: _279  and  _280
REMARK  108  A    between atoms: _285  and  _287
REMARK  109  A    between atoms: _287  and  _288
REMARK  110  A    between atoms: _290  and  _292
REMARK  111  A    between atoms: _292  and  _293
REMARK  112  A    between atoms: _296  and  _298
REMARK  113  A    between atoms: _298  and  _299
REMARK  114  A    between atoms: _302  and  _304
REMARK  115  A    between atoms: _304  and  _305
REMARK  116  A    between atoms: _304  and  _307
REMARK  117  A    between atoms: _307  and  _308
REMARK  118  A    between atoms: _318  and  _320
REMARK  119  A    between atoms: _320  and  _321
REMARK  120  A    between atoms: _320  and  _323
REMARK  121  A    between atoms: _323  and  _324
REMARK  122  A    between atoms: _326  and  _328
REMARK  123  A    between atoms: _328  and  _329
REMARK  124  A    between atoms: _328  and  _331
REMARK  125  A    between atoms: _331  and  _332
REMARK  126  A    between atoms: _337  and  _339
REMARK  127  A    between atoms: _339  and  _340
REMARK  128  A    between atoms: _339  and  _342
REMARK  129  A    between atoms: _342  and  _343
REMARK  130  A    between atoms: _349  and  _351
REMARK  131  A    between atoms: _351  and  _352
REMARK  132  A    between atoms: _351  and  _354
REMARK  133  A    between atoms: _354  and  _355
REMARK  134  A    between atoms: _355  and  _356
REMARK  135  A    between atoms: _359  and  _361
REMARK  136  A    between atoms: _361  and  _362
REMARK  137  A    between atoms: _361  and  _364
REMARK  138  A    between atoms: _364  and  _365
REMARK  139  A    between atoms: _375  and  _377
REMARK  140  A    between atoms: _377  and  _378
REMARK  141  A    between atoms: _377  and  _380
REMARK  142  A    between atoms: _380  and  _381
REMARK  143  A    between atoms: _381  and  _382
REMARK  144  A    between atoms: _385  and  _387
REMARK  145  A    between atoms: _387  and  _388
REMARK  146  A    between atoms: _387  and  _390
REMARK  147  A    between atoms: _390  and  _391
REMARK  148  A    between atoms: _391  and  _392
REMARK  149  A    between atoms: _392  and  _393
REMARK  150  A    between atoms: _393  and  _394
REMARK  151  A    between atoms: _398  and  _400
REMARK  152  A    between atoms: _400  and  _401
REMARK  153  A    between atoms: _400  and  _403
REMARK  154  A    between atoms: _403  and  _404
REMARK                            x       y       z     vdW  Elec       q    Type
REMARK                         _______ _______ _______ _____ _____    ______ ____
ROOT
ATOM      1  CA  GLU A   1      -0.824   2.265   2.018  0.00  0.00    +0.134 C 
ENDROOT
BRANCH   1   2
ATOM      2  N   GLU A   1       0.455   2.660   2.615  0.00  0.00    -0.239 NA
ATOM      3  H   GLU A   1       0.477   3.493   3.237  0.00  0.00    +0.142 HD
ENDBRANCH   1   2
BRANCH   1   4
ATOM      4  C   GLU A   1      -1.019   2.855   0.628  0.00  0.00    +0.224 C 
ATOM      5  O   GLU A   1      -1.995   2.527  -0.051  0.00  0.00    -0.287 OA
ENDBRANCH   1   4
BRANCH   1   6
ATOM      6  CB  GLU A   1      -1.987   2.772   2.895  0.00  0.00    +0.037 C 
BRANCH   6   7
ATOM      7  CG  GLU A   1      -1.994   2.203   4.257  0.00  0.00    +0.116 C 
BRANCH   7   8
ATOM      8  CD  GLU A   1      -2.513   0.765   4.252  0.00  0.00    +0.365 C 
ATOM      9  OE2 GLU A   1      -2.139  -0.001   5.171  0.00  0.00    -0.246 OA
ATOM     10  OE1 GLU A   1      -3.292   0.410   3.333  0.00  0.00    -0.246 OA
ENDBRANCH   7   8
ENDBRANCH   6   7
ENDBRANCH   1   6
TORSDOF 5
REMARK  Name = ../refined-set-2016/2j7h/2j7h_pocket.pdb
REMARK  154 active torsions:
REMARK  status: ('A' for Active; 'I' for Inactive)
REMARK    1  A    between atoms: _1  and  _3
REMARK    2  A    between atoms: _3  and  _4
REMARK    3  A    between atoms: _7  and  _9
REMARK    4  A    between atoms: _9  and  _10
REMARK    5  A    between atoms: _9  and  _12
REMARK    6  A    between atoms: _12  and  _13
REMARK    7  A    between atoms: _16  and  _18
REMARK    8  A    between atoms: _18  and  _19
REMARK    9  A    between atoms: _22  and  _24
REMARK   10  A    between atoms: _24  and  _25
REMARK   11  A    between atoms: _24  and  _27
REMARK   12  A    between atoms: _27  and  _28
REMARK   13  A    between atoms: _30  and  _32
REMARK   14  A    between atoms: _32  and  _33
REMARK   15  A    between atoms: _32  and  _35
REMARK   16  A    between atoms: _35  and  _36
REMARK   17  A    between atoms: _41  and  _42
REMARK   18  A    between atoms: _44  and  _46
REMARK   19  A    between atoms: _46  and  _47
REMARK   20  A    between atoms: _46  and  _49
REMARK   21  A    between atoms: _49  and  _50
REMARK   22  A    between atoms: _50  and  _51
REMARK   23  A    between atoms: _56  and  _58
REMARK   24  A    between atoms: _58  and  _59
REMARK   25  A    between atoms: _58  and  _61
REMARK   26  A    between atoms: _61  and  _62
REMARK   27  A    between atoms: _62  and  _63
REMARK   28  A    between atoms: _63  and  _64
REMARK   29  A    between atoms: _73  and  _75
REMARK   30  A    between atoms: _75  and  _76
REMARK   31  A    between atoms: _75  and  _78
REMARK   32  A    between atoms: _78  and  _79
REMARK   33  A    between atoms: _82  and  _84
REMARK   34  A    between atoms: _84  and  _85
REMARK   35  A    between atoms: _84  and  _87
REMARK   36  A    between atoms: _87  and  _88
REMARK   37  A    between atoms: _93  and  _95
REMARK   38  A    between atoms: _95  and  _96
REMARK   39  A    between atoms: _95  and  _98
REMARK   40  A    between atoms: _98  and  _99
REMARK   41  A    between atoms: _109  and  _111
REMARK   42  A    between atoms: _111  and  _112
REMARK   43  A    between atoms: _111  and  _114
REMARK   44  A    between atoms: _114  and  _115
REMARK   45  A    between atoms: _120  and  _122
REMARK   46  A    between atoms: _122  and  _123
REMARK   47  A    between atoms: _122  and  _125
REMARK   48  A    between atoms: _125  and  _126
REMARK   49  A    between atoms: _126  and  _127
REMARK   50  A    between atoms: _130  and  _132
REMARK   51  A    between atoms: _132  and  _133
REMARK   52  A    between atoms: _132  and  _135
REMARK   53  A    between atoms: _138  and  _140
REMARK   54  A    between atoms: _140  and  _141
REMARK   55  A    between atoms: _140  and  _143
REMARK   56  A    between atoms: _143  and  _144
REMARK   57  A    between atoms: _149  and  _151
REMARK   58  A    between atoms: _151  and  _152
REMARK   59  A    between atoms: _151  and  _154
REMARK   60  A    between atoms: _157  and  _159
REMARK   61  A    between atoms: _159  and  _160
REMARK   62  A    between atoms: _159  and  _162
REMARK   63  A    between atoms: _162  and  _163
REMARK   64  A    between atoms: _169  and  _171
REMARK   65  A    between atoms: _171  and  _172
REMARK   66  A    between atoms: _171  and  _174
REMARK   67  A    between atoms: _174  and  _175
REMARK   68  A    between atoms: _180  and  _182
REMARK   69  A    between atoms: _182  and  _183
REMARK   70  A    between atoms: _182  and  _185
REMARK   71  A    between atoms: _185  and  _186
REMARK   72  A    between atoms: _191  and  _193
REMARK   73  A    between atoms: _193  and  _194
REMARK   74  A    between atoms: _193  and  _196
REMARK   75  A    between atoms: _196  and  _197
REMARK   76  A    between atoms: _202  and  _204
REMARK   77  A    between atoms: _204  and  _205
REMARK   78  A    between atoms: _204  and  _207
REMARK   79  A    between atoms: _207  and  _208
REMARK   80  A    between atoms: _213  and  _214
REMARK   81  A    between atoms: _216  and  _218
REMARK   82  A    between atoms: _218  and  _219
REMARK   83  A    between atoms: _218  and  _221
REMARK   84  A    between atoms: _221  and  _222
REMARK   85  A    between atoms: _227  and  _228
REMARK   86  A    between atoms: _230  and  _232
REMARK   87  A    between atoms: _232  and  _233
REMARK   88  A    between atoms: _232  and  _235
REMARK   89  A    between atoms: _235  and  _236
REMARK   90  A    between atoms: _236  and  _237
REMARK   91  A    between atoms: _239  and  _241
REMARK   92  A    between atoms: _241  and  _242
REMARK   93  A    between atoms: _241  and  _244
REMARK   94  A    between atoms: _244  and  _245
REMARK   95  A    between atoms: _255  and  _257
REMARK   96  A    between atoms: _257  and  _258
REMARK   97  A    between atoms: _257  and  _260
REMARK   98  A    between atoms: _260  and  _261
REMARK   99  A    between atoms: _264  and  _266
REMARK  100  A    between atoms: _266  and  _267
REMARK  101  A    between atoms: _266  and  _269
REMARK  102  A    between atoms: _269  and  _270
REMARK  103  A    between atoms: _270  and  _271
REMARK  104  A    between atoms: _274  and  _276
REMARK  105  A    between atoms: _276  and  _277
REMARK  106  A    between atoms: _276  and  _279
REMARK  107  A    between atoms: _279  and  _280
REMARK  108  A    between atoms: _285  and  _287
REMARK  109  A    between atoms: _287  and  _288
REMARK  110  A    between atoms: _290  and  _292
REMARK  111  A    between atoms: _292  and  _293
REMARK  112  A    between atoms: _296  and  _298
REMARK  113  A    between atoms: _298  and  _299
REMARK  114  A    between atoms: _302  and  _304
REMARK  115  A    between atoms: _304  and  _305
REMARK  116  A    between atoms: _304  and  _307
REMARK  117  A    between atoms: _307  and  _308
REMARK  118  A    between atoms: _318  and  _320
REMARK  119  A    between atoms: _320  and  _321
REMARK  120  A    between atoms: _320  and  _323
REMARK  121  A    between atoms: _323  and  _324
REMARK  122  A    between atoms: _326  and  _328
REMARK  123  A    between atoms: _328  and  _329
REMARK  124  A    between atoms: _328  and  _331
REMARK  125  A    between atoms: _331  and  _332
REMARK  126  A    between atoms: _337  and  _339
REMARK  127  A    between atoms: _339  and  _340
REMARK  128  A    between atoms: _339  and  _342
REMARK  129  A    between atoms: _342  and  _343
REMARK  130  A    between atoms: _349  and  _351
REMARK  131  A    between atoms: _351  and  _352
REMARK  132  A    between atoms: _351  and  _354
REMARK  133  A    between atoms: _354  and  _355
REMARK  134  A    between atoms: _355  and  _356
REMARK  135  A    between atoms: _359  and  _361
REMARK  136  A    between atoms: _361  and  _362
REMARK  137  A    between atoms: _361  and  _364
REMARK  138  A    between atoms: _364  and  _365
REMARK  139  A    between atoms: _375  and  _377
REMARK  140  A    between atoms: _377  and  _378
REMARK  141  A    between atoms: _377  and  _380
REMARK  142  A    between atoms: _380  and  _381
REMARK  143  A    between atoms: _381  and  _382
REMARK  144  A    between atoms: _385  and  _387
REMARK  145  A    between atoms: _387  and  _388
REMARK  146  A    between atoms: _387  and  _390
REMARK  147  A    between atoms: _390  and  _391
REMARK  148  A    between atoms: _391  and  _392
REMARK  149  A    between atoms: _392  and  _393
REMARK  150  A    between atoms: _393  and  _394
REMARK  151  A    between atoms: _398  and  _400
REMARK  152  A    between atoms: _400  and  _401
REMARK  153  A    between atoms: _400  and  _403
REMARK  154  A    between atoms: _403  and  _404
REMARK                            x       y       z     vdW  Elec       q    Type
REMARK                         _______ _______ _______ _____ _____    ______ ____
ROOT
ATOM      1  CG  LYS A   1      -5.710   3.458   3.294  0.00  0.00    -0.000 C 
ENDROOT
BRANCH   1   2
ATOM      2  CB  LYS A   1      -6.015   4.929   3.020  0.00  0.00    +0.025 C 
BRANCH   2   3
ATOM      3  CA  LYS A   1      -6.716   5.200   1.683  0.00  0.00    +0.133 C 
BRANCH   3   4
ATOM      4  N   LYS A   1      -5.972   4.636   0.543  0.00  0.00    -0.239 NA
ATOM      5  H   LYS A   1      -5.039   5.027   0.299  0.00  0.00    +0.142 HD
ENDBRANCH   3   4
BRANCH   3   6
ATOM      6  C   LYS A   1      -6.950   6.685   1.539  0.00  0.00    +0.224 C 
ATOM      7  O   LYS A   1      -6.011   7.468   1.502  0.00  0.00    -0.287 OA
ENDBRANCH   3   6
ENDBRANCH   2   3
ENDBRANCH   1   2
BRANCH   1   8
ATOM      8  CD  LYS A   1      -6.984   2.651   3.481  0.00  0.00    -0.024 C 
BRANCH   8   9
ATOM      9  CE  LYS A   1      -6.651   1.204   3.794  0.00  0.00    -0.086 C 
BRANCH   9  10
ATOM     10  NZ  LYS A   1      -6.502   0.510   2.488  0.00  0.00    +0.380 N 
ATOM     11  HZ1 LYS A   1      -6.272  -0.491   2.653  0.00  0.00    -0.089 HD
ATOM     12  HZ2 LYS A   1      -7.393   0.579   1.956  0.00  0.00    -0.089 HD
ATOM     13  HZ3 LYS A   1      -5.737   0.958   1.944  0.00  0.00    -0.089 HD
ENDBRANCH   9  10
ENDBRANCH   8   9
ENDBRANCH   1   8
TORSDOF 7
REMARK  Name = ../refined-set-2016/2j7h/2j7h_pocket.pdb
REMARK  154 active torsions:
REMARK  status: ('A' for Active; 'I' for Inactive)
REMARK    1  A    between atoms: _1  and  _3
REMARK    2  A    between atoms: _3  and  _4
REMARK    3  A    between atoms: _7  and  _9
REMARK    4  A    between atoms: _9  and  _10
REMARK    5  A    between atoms: _9  and  _12
REMARK    6  A    between atoms: _12  and  _13
REMARK    7  A    between atoms: _16  and  _18
REMARK    8  A    between atoms: _18  and  _19
REMARK    9  A    between atoms: _22  and  _24
REMARK   10  A    between atoms: _24  and  _25
REMARK   11  A    between atoms: _24  and  _27
REMARK   12  A    between atoms: _27  and  _28
REMARK   13  A    between atoms: _30  and  _32
REMARK   14  A    between atoms: _32  and  _33
REMARK   15  A    between atoms: _32  and  _35
REMARK   16  A    between atoms: _35  and  _36
REMARK   17  A    between atoms: _41  and  _42
REMARK   18  A    between atoms: _44  and  _46
REMARK   19  A    between atoms: _46  and  _47
REMARK   20  A    between atoms: _46  and  _49
REMARK   21  A    between atoms: _49  and  _50
REMARK   22  A    between atoms: _50  and  _51
REMARK   23  A    between atoms: _56  and  _58
REMARK   24  A    between atoms: _58  and  _59
REMARK   25  A    between atoms: _58  and  _61
REMARK   26  A    between atoms: _61  and  _62
REMARK   27  A    between atoms: _62  and  _63
REMARK   28  A    between atoms: _63  and  _64
REMARK   29  A    between atoms: _73  and  _75
REMARK   30  A    between atoms: _75  and  _76
REMARK   31  A    between atoms: _75  and  _78
REMARK   32  A    between atoms: _78  and  _79
REMARK   33  A    between atoms: _82  and  _84
REMARK   34  A    between atoms: _84  and  _85
REMARK   35  A    between atoms: _84  and  _87
REMARK   36  A    between atoms: _87  and  _88
REMARK   37  A    between atoms: _93  and  _95
REMARK   38  A    between atoms: _95  and  _96
REMARK   39  A    between atoms: _95  and  _98
REMARK   40  A    between atoms: _98  and  _99
REMARK   41  A    between atoms: _109  and  _111
REMARK   42  A    between atoms: _111  and  _112
REMARK   43  A    between atoms: _111  and  _114
REMARK   44  A    between atoms: _114  and  _115
REMARK   45  A    between atoms: _120  and  _122
REMARK   46  A    between atoms: _122  and  _123
REMARK   47  A    between atoms: _122  and  _125
REMARK   48  A    between atoms: _125  and  _126
REMARK   49  A    between atoms: _126  and  _127
REMARK   50  A    between atoms: _130  and  _132
REMARK   51  A    between atoms: _132  and  _133
REMARK   52  A    between atoms: _132  and  _135
REMARK   53  A    between atoms: _138  and  _140
REMARK   54  A    between atoms: _140  and  _141
REMARK   55  A    between atoms: _140  and  _143
REMARK   56  A    between atoms: _143  and  _144
REMARK   57  A    between atoms: _149  and  _151
REMARK   58  A    between atoms: _151  and  _152
REMARK   59  A    between atoms: _151  and  _154
REMARK   60  A    between atoms: _157  and  _159
REMARK   61  A    between atoms: _159  and  _160
REMARK   62  A    between atoms: _159  and  _162
REMARK   63  A    between atoms: _162  and  _163
REMARK   64  A    between atoms: _169  and  _171
REMARK   65  A    between atoms: _171  and  _172
REMARK   66  A    between atoms: _171  and  _174
REMARK   67  A    between atoms: _174  and  _175
REMARK   68  A    between atoms: _180  and  _182
REMARK   69  A    between atoms: _182  and  _183
REMARK   70  A    between atoms: _182  and  _185
REMARK   71  A    between atoms: _185  and  _186
REMARK   72  A    between atoms: _191  and  _193
REMARK   73  A    between atoms: _193  and  _194
REMARK   74  A    between atoms: _193  and  _196
REMARK   75  A    between atoms: _196  and  _197
REMARK   76  A    between atoms: _202  and  _204
REMARK   77  A    between atoms: _204  and  _205
REMARK   78  A    between atoms: _204  and  _207
REMARK   79  A    between atoms: _207  and  _208
REMARK   80  A    between atoms: _213  and  _214
REMARK   81  A    between atoms: _216  and  _218
REMARK   82  A    between atoms: _218  and  _219
REMARK   83  A    between atoms: _218  and  _221
REMARK   84  A    between atoms: _221  and  _222
REMARK   85  A    between atoms: _227  and  _228
REMARK   86  A    between atoms: _230  and  _232
REMARK   87  A    between atoms: _232  and  _233
REMARK   88  A    between atoms: _232  and  _235
REMARK   89  A    between atoms: _235  and  _236
REMARK   90  A    between atoms: _236  and  _237
REMARK   91  A    between atoms: _239  and  _241
REMARK   92  A    between atoms: _241  and  _242
REMARK   93  A    between atoms: _241  and  _244
REMARK   94  A    between atoms: _244  and  _245
REMARK   95  A    between atoms: _255  and  _257
REMARK   96  A    between atoms: _257  and  _258
REMARK   97  A    between atoms: _257  and  _260
REMARK   98  A    between atoms: _260  and  _261
REMARK   99  A    between atoms: _264  and  _266
REMARK  100  A    between atoms: _266  and  _267
REMARK  101  A    between atoms: _266  and  _269
REMARK  102  A    between atoms: _269  and  _270
REMARK  103  A    between atoms: _270  and  _271
REMARK  104  A    between atoms: _274  and  _276
REMARK  105  A    between atoms: _276  and  _277
REMARK  106  A    between atoms: _276  and  _279
REMARK  107  A    between atoms: _279  and  _280
REMARK  108  A    between atoms: _285  and  _287
REMARK  109  A    between atoms: _287  and  _288
REMARK  110  A    between atoms: _290  and  _292
REMARK  111  A    between atoms: _292  and  _293
REMARK  112  A    between atoms: _296  and  _298
REMARK  113  A    between atoms: _298  and  _299
REMARK  114  A    between atoms: _302  and  _304
REMARK  115  A    between atoms: _304  and  _305
REMARK  116  A    between atoms: _304  and  _307
REMARK  117  A    between atoms: _307  and  _308
REMARK  118  A    between atoms: _318  and  _320
REMARK  119  A    between atoms: _320  and  _321
REMARK  120  A    between atoms: _320  and  _323
REMARK  121  A    between atoms: _323  and  _324
REMARK  122  A    between atoms: _326  and  _328
REMARK  123  A    between atoms: _328  and  _329
REMARK  124  A    between atoms: _328  and  _331
REMARK  125  A    between atoms: _331  and  _332
REMARK  126  A    between atoms: _337  and  _339
REMARK  127  A    between atoms: _339  and  _340
REMARK  128  A    between atoms: _339  and  _342
REMARK  129  A    between atoms: _342  and  _343
REMARK  130  A    between atoms: _349  and  _351
REMARK  131  A    between atoms: _351  and  _352
REMARK  132  A    between atoms: _351  and  _354
REMARK  133  A    between atoms: _354  and  _355
REMARK  134  A    between atoms: _355  and  _356
REMARK  135  A    between atoms: _359  and  _361
REMARK  136  A    between atoms: _361  and  _362
REMARK  137  A    between atoms: _361  and  _364
REMARK  138  A    between atoms: _364  and  _365
REMARK  139  A    between atoms: _375  and  _377
REMARK  140  A    between atoms: _377  and  _378
REMARK  141  A    between atoms: _377  and  _380
REMARK  142  A    between atoms: _380  and  _381
REMARK  143  A    between atoms: _381  and  _382
REMARK  144  A    between atoms: _385  and  _387
REMARK  145  A    between atoms: _387  and  _388
REMARK  146  A    between atoms: _387  and  _390
REMARK  147  A    between atoms: _390  and  _391
REMARK  148  A    between atoms: _391  and  _392
REMARK  149  A    between atoms: _392  and  _393
REMARK  150  A    between atoms: _393  and  _394
REMARK  151  A    between atoms: _398  and  _400
REMARK  152  A    between atoms: _400  and  _401
REMARK  153  A    between atoms: _400  and  _403
REMARK  154  A    between atoms: _403  and  _404
REMARK                            x       y       z     vdW  Elec       q    Type
REMARK                         _______ _______ _______ _____ _____    ______ ____
ROOT
ATOM      1  CB  PHE A   1      -7.469  11.070   4.950  0.00  0.00    +0.051 C 
ENDROOT
BRANCH   1   2
ATOM      2  CG  PHE A   1      -7.106   9.970   5.868  0.00  0.00    -0.020 A 
ATOM      3  CD2 PHE A   1      -7.584   9.958   7.171  0.00  0.00    -0.004 A 
ATOM      4  CE2 PHE A   1      -7.232   8.948   8.047  0.00  0.00    -0.000 A 
ATOM      5  CZ  PHE A   1      -6.387   7.935   7.635  0.00  0.00    -0.000 A 
ATOM      6  CE1 PHE A   1      -5.900   7.933   6.339  0.00  0.00    -0.000 A 
ATOM      7  CD1 PHE A   1      -6.250   8.943   5.459  0.00  0.00    -0.004 A 
ENDBRANCH   1   2
BRANCH   1   8
ATOM      8  CA  PHE A   1      -8.781  10.861   4.168  0.00  0.00    +0.137 C 
BRANCH   8   9
ATOM      9  N   PHE A   1      -8.503  10.114   2.921  0.00  0.00    -0.239 NA
ATOM     10  H   PHE A   1      -7.708  10.430   2.330  0.00  0.00    +0.142 HD
ENDBRANCH   8   9
BRANCH   8  11
ATOM     11  C   PHE A   1      -9.340  12.272   3.898  0.00  0.00    +0.224 C 
ATOM     12  O   PHE A   1      -9.589  13.017   4.845  0.00  0.00    -0.287 OA
ENDBRANCH   8  11
ENDBRANCH   1   8
TORSDOF 4
REMARK  Name = ../refined-set-2016/2j7h/2j7h_pocket.pdb
REMARK  154 active torsions:
REMARK  status: ('A' for Active; 'I' for Inactive)
REMARK    1  A    between atoms: _1  and  _3
REMARK    2  A    between atoms: _3  and  _4
REMARK    3  A    between atoms: _7  and  _9
REMARK    4  A    between atoms: _9  and  _10
REMARK    5  A    between atoms: _9  and  _12
REMARK    6  A    between atoms: _12  and  _13
REMARK    7  A    between atoms: _16  and  _18
REMARK    8  A    between atoms: _18  and  _19
REMARK    9  A    between atoms: _22  and  _24
REMARK   10  A    between atoms: _24  and  _25
REMARK   11  A    between atoms: _24  and  _27
REMARK   12  A    between atoms: _27  and  _28
REMARK   13  A    between atoms: _30  and  _32
REMARK   14  A    between atoms: _32  and  _33
REMARK   15  A    between atoms: _32  and  _35
REMARK   16  A    between atoms: _35  and  _36
REMARK   17  A    between atoms: _41  and  _42
REMARK   18  A    between atoms: _44  and  _46
REMARK   19  A    between atoms: _46  and  _47
REMARK   20  A    between atoms: _46  and  _49
REMARK   21  A    between atoms: _49  and  _50
REMARK   22  A    between atoms: _50  and  _51
REMARK   23  A    between atoms: _56  and  _58
REMARK   24  A    between atoms: _58  and  _59
REMARK   25  A    between atoms: _58  and  _61
REMARK   26  A    between atoms: _61  and  _62
REMARK   27  A    between atoms: _62  and  _63
REMARK   28  A    between atoms: _63  and  _64
REMARK   29  A    between atoms: _73  and  _75
REMARK   30  A    between atoms: _75  and  _76
REMARK   31  A    between atoms: _75  and  _78
REMARK   32  A    between atoms: _78  and  _79
REMARK   33  A    between atoms: _82  and  _84
REMARK   34  A    between atoms: _84  and  _85
REMARK   35  A    between atoms: _84  and  _87
REMARK   36  A    between atoms: _87  and  _88
REMARK   37  A    between atoms: _93  and  _95
REMARK   38  A    between atoms: _95  and  _96
REMARK   39  A    between atoms: _95  and  _98
REMARK   40  A    between atoms: _98  and  _99
REMARK   41  A    between atoms: _109  and  _111
REMARK   42  A    between atoms: _111  and  _112
REMARK   43  A    between atoms: _111  and  _114
REMARK   44  A    between atoms: _114  and  _115
REMARK   45  A    between atoms: _120  and  _122
REMARK   46  A    between atoms: _122  and  _123
REMARK   47  A    between atoms: _122  and  _125
REMARK   48  A    between atoms: _125  and  _126
REMARK   49  A    between atoms: _126  and  _127
REMARK   50  A    between atoms: _130  and  _132
REMARK   51  A    between atoms: _132  and  _133
REMARK   52  A    between atoms: _132  and  _135
REMARK   53  A    between atoms: _138  and  _140
REMARK   54  A    between atoms: _140  and  _141
REMARK   55  A    between atoms: _140  and  _143
REMARK   56  A    between atoms: _143  and  _144
REMARK   57  A    between atoms: _149  and  _151
REMARK   58  A    between atoms: _151  and  _152
REMARK   59  A    between atoms: _151  and  _154
REMARK   60  A    between atoms: _157  and  _159
REMARK   61  A    between atoms: _159  and  _160
REMARK   62  A    between atoms: _159  and  _162
REMARK   63  A    between atoms: _162  and  _163
REMARK   64  A    between atoms: _169  and  _171
REMARK   65  A    between atoms: _171  and  _172
REMARK   66  A    between atoms: _171  and  _174
REMARK   67  A    between atoms: _174  and  _175
REMARK   68  A    between atoms: _180  and  _182
REMARK   69  A    between atoms: _182  and  _183
REMARK   70  A    between atoms: _182  and  _185
REMARK   71  A    between atoms: _185  and  _186
REMARK   72  A    between atoms: _191  and  _193
REMARK   73  A    between atoms: _193  and  _194
REMARK   74  A    between atoms: _193  and  _196
REMARK   75  A    between atoms: _196  and  _197
REMARK   76  A    between atoms: _202  and  _204
REMARK   77  A    between atoms: _204  and  _205
REMARK   78  A    between atoms: _204  and  _207
REMARK   79  A    between atoms: _207  and  _208
REMARK   80  A    between atoms: _213  and  _214
REMARK   81  A    between atoms: _216  and  _218
REMARK   82  A    between atoms: _218  and  _219
REMARK   83  A    between atoms: _218  and  _221
REMARK   84  A    between atoms: _221  and  _222
REMARK   85  A    between atoms: _227  and  _228
REMARK   86  A    between atoms: _230  and  _232
REMARK   87  A    between atoms: _232  and  _233
REMARK   88  A    between atoms: _232  and  _235
REMARK   89  A    between atoms: _235  and  _236
REMARK   90  A    between atoms: _236  and  _237
REMARK   91  A    between atoms: _239  and  _241
REMARK   92  A    between atoms: _241  and  _242
REMARK   93  A    between atoms: _241  and  _244
REMARK   94  A    between atoms: _244  and  _245
REMARK   95  A    between atoms: _255  and  _257
REMARK   96  A    between atoms: _257  and  _258
REMARK   97  A    between atoms: _257  and  _260
REMARK   98  A    between atoms: _260  and  _261
REMARK   99  A    between atoms: _264  and  _266
REMARK  100  A    between atoms: _266  and  _267
REMARK  101  A    between atoms: _266  and  _269
REMARK  102  A    between atoms: _269  and  _270
REMARK  103  A    between atoms: _270  and  _271
REMARK  104  A    between atoms: _274  and  _276
REMARK  105  A    between atoms: _276  and  _277
REMARK  106  A    between atoms: _276  and  _279
REMARK  107  A    between atoms: _279  and  _280
REMARK  108  A    between atoms: _285  and  _287
REMARK  109  A    between atoms: _287  and  _288
REMARK  110  A    between atoms: _290  and  _292
REMARK  111  A    between atoms: _292  and  _293
REMARK  112  A    between atoms: _296  and  _298
REMARK  113  A    between atoms: _298  and  _299
REMARK  114  A    between atoms: _302  and  _304
REMARK  115  A    between atoms: _304  and  _305
REMARK  116  A    between atoms: _304  and  _307
REMARK  117  A    between atoms: _307  and  _308
REMARK  118  A    between atoms: _318  and  _320
REMARK  119  A    between atoms: _320  and  _321
REMARK  120  A    between atoms: _320  and  _323
REMARK  121  A    between atoms: _323  and  _324
REMARK  122  A    between atoms: _326  and  _328
REMARK  123  A    between atoms: _328  and  _329
REMARK  124  A    between atoms: _328  and  _331
REMARK  125  A    between atoms: _331  and  _332
REMARK  126  A    between atoms: _337  and  _339
REMARK  127  A    between atoms: _339  and  _340
REMARK  128  A    between atoms: _339  and  _342
REMARK  129  A    between atoms: _342  and  _343
REMARK  130  A    between atoms: _349  and  _351
REMARK  131  A    between atoms: _351  and  _352
REMARK  132  A    between atoms: _351  and  _354
REMARK  133  A    between atoms: _354  and  _355
REMARK  134  A    between atoms: _355  and  _356
REMARK  135  A    between atoms: _359  and  _361
REMARK  136  A    between atoms: _361  and  _362
REMARK  137  A    between atoms: _361  and  _364
REMARK  138  A    between atoms: _364  and  _365
REMARK  139  A    between atoms: _375  and  _377
REMARK  140  A    between atoms: _377  and  _378
REMARK  141  A    between atoms: _377  and  _380
REMARK  142  A    between atoms: _380  and  _381
REMARK  143  A    between atoms: _381  and  _382
REMARK  144  A    between atoms: _385  and  _387
REMARK  145  A    between atoms: _387  and  _388
REMARK  146  A    between atoms: _387  and  _390
REMARK  147  A    between atoms: _390  and  _391
REMARK  148  A    between atoms: _391  and  _392
REMARK  149  A    between atoms: _392  and  _393
REMARK  150  A    between atoms: _393  and  _394
REMARK  151  A    between atoms: _398  and  _400
REMARK  152  A    between atoms: _400  and  _401
REMARK  153  A    between atoms: _400  and  _403
REMARK  154  A    between atoms: _403  and  _404
REMARK                            x       y       z     vdW  Elec       q    Type
REMARK                         _______ _______ _______ _____ _____    ______ ____
ROOT
ATOM      1  O   HOH     1       1.449   4.015  13.839  0.00  0.00    +0.000 OA
ENDROOT
TORSDOF 0
REMARK  Name = ../refined-set-2016/2j7h/2j7h_pocket.pdb
REMARK  154 active torsions:
REMARK  status: ('A' for Active; 'I' for Inactive)
REMARK    1  A    between atoms: _1  and  _3
REMARK    2  A    between atoms: _3  and  _4
REMARK    3  A    between atoms: _7  and  _9
REMARK    4  A    between atoms: _9  and  _10
REMARK    5  A    between atoms: _9  and  _12
REMARK    6  A    between atoms: _12  and  _13
REMARK    7  A    between atoms: _16  and  _18
REMARK    8  A    between atoms: _18  and  _19
REMARK    9  A    between atoms: _22  and  _24
REMARK   10  A    between atoms: _24  and  _25
REMARK   11  A    between atoms: _24  and  _27
REMARK   12  A    between atoms: _27  and  _28
REMARK   13  A    between atoms: _30  and  _32
REMARK   14  A    between atoms: _32  and  _33
REMARK   15  A    between atoms: _32  and  _35
REMARK   16  A    between atoms: _35  and  _36
REMARK   17  A    between atoms: _41  and  _42
REMARK   18  A    between atoms: _44  and  _46
REMARK   19  A    between atoms: _46  and  _47
REMARK   20  A    between atoms: _46  and  _49
REMARK   21  A    between atoms: _49  and  _50
REMARK   22  A    between atoms: _50  and  _51
REMARK   23  A    between atoms: _56  and  _58
REMARK   24  A    between atoms: _58  and  _59
REMARK   25  A    between atoms: _58  and  _61
REMARK   26  A    between atoms: _61  and  _62
REMARK   27  A    between atoms: _62  and  _63
REMARK   28  A    between atoms: _63  and  _64
REMARK   29  A    between atoms: _73  and  _75
REMARK   30  A    between atoms: _75  and  _76
REMARK   31  A    between atoms: _75  and  _78
REMARK   32  A    between atoms: _78  and  _79
REMARK   33  A    between atoms: _82  and  _84
REMARK   34  A    between atoms: _84  and  _85
REMARK   35  A    between atoms: _84  and  _87
REMARK   36  A    between atoms: _87  and  _88
REMARK   37  A    between atoms: _93  and  _95
REMARK   38  A    between atoms: _95  and  _96
REMARK   39  A    between atoms: _95  and  _98
REMARK   40  A    between atoms: _98  and  _99
REMARK   41  A    between atoms: _109  and  _111
REMARK   42  A    between atoms: _111  and  _112
REMARK   43  A    between atoms: _111  and  _114
REMARK   44  A    between atoms: _114  and  _115
REMARK   45  A    between atoms: _120  and  _122
REMARK   46  A    between atoms: _122  and  _123
REMARK   47  A    between atoms: _122  and  _125
REMARK   48  A    between atoms: _125  and  _126
REMARK   49  A    between atoms: _126  and  _127
REMARK   50  A    between atoms: _130  and  _132
REMARK   51  A    between atoms: _132  and  _133
REMARK   52  A    between atoms: _132  and  _135
REMARK   53  A    between atoms: _138  and  _140
REMARK   54  A    between atoms: _140  and  _141
REMARK   55  A    between atoms: _140  and  _143
REMARK   56  A    between atoms: _143  and  _144
REMARK   57  A    between atoms: _149  and  _151
REMARK   58  A    between atoms: _151  and  _152
REMARK   59  A    between atoms: _151  and  _154
REMARK   60  A    between atoms: _157  and  _159
REMARK   61  A    between atoms: _159  and  _160
REMARK   62  A    between atoms: _159  and  _162
REMARK   63  A    between atoms: _162  and  _163
REMARK   64  A    between atoms: _169  and  _171
REMARK   65  A    between atoms: _171  and  _172
REMARK   66  A    between atoms: _171  and  _174
REMARK   67  A    between atoms: _174  and  _175
REMARK   68  A    between atoms: _180  and  _182
REMARK   69  A    between atoms: _182  and  _183
REMARK   70  A    between atoms: _182  and  _185
REMARK   71  A    between atoms: _185  and  _186
REMARK   72  A    between atoms: _191  and  _193
REMARK   73  A    between atoms: _193  and  _194
REMARK   74  A    between atoms: _193  and  _196
REMARK   75  A    between atoms: _196  and  _197
REMARK   76  A    between atoms: _202  and  _204
REMARK   77  A    between atoms: _204  and  _205
REMARK   78  A    between atoms: _204  and  _207
REMARK   79  A    between atoms: _207  and  _208
REMARK   80  A    between atoms: _213  and  _214
REMARK   81  A    between atoms: _216  and  _218
REMARK   82  A    between atoms: _218  and  _219
REMARK   83  A    between atoms: _218  and  _221
REMARK   84  A    between atoms: _221  and  _222
REMARK   85  A    between atoms: _227  and  _228
REMARK   86  A    between atoms: _230  and  _232
REMARK   87  A    between atoms: _232  and  _233
REMARK   88  A    between atoms: _232  and  _235
REMARK   89  A    between atoms: _235  and  _236
REMARK   90  A    between atoms: _236  and  _237
REMARK   91  A    between atoms: _239  and  _241
REMARK   92  A    between atoms: _241  and  _242
REMARK   93  A    between atoms: _241  and  _244
REMARK   94  A    between atoms: _244  and  _245
REMARK   95  A    between atoms: _255  and  _257
REMARK   96  A    between atoms: _257  and  _258
REMARK   97  A    between atoms: _257  and  _260
REMARK   98  A    between atoms: _260  and  _261
REMARK   99  A    between atoms: _264  and  _266
REMARK  100  A    between atoms: _266  and  _267
REMARK  101  A    between atoms: _266  and  _269
REMARK  102  A    between atoms: _269  and  _270
REMARK  103  A    between atoms: _270  and  _271
REMARK  104  A    between atoms: _274  and  _276
REMARK  105  A    between atoms: _276  and  _277
REMARK  106  A    between atoms: _276  and  _279
REMARK  107  A    between atoms: _279  and  _280
REMARK  108  A    between atoms: _285  and  _287
REMARK  109  A    between atoms: _287  and  _288
REMARK  110  A    between atoms: _290  and  _292
REMARK  111  A    between atoms: _292  and  _293
REMARK  112  A    between atoms: _296  and  _298
REMARK  113  A    between atoms: _298  and  _299
REMARK  114  A    between atoms: _302  and  _304
REMARK  115  A    between atoms: _304  and  _305
REMARK  116  A    between atoms: _304  and  _307
REMARK  117  A    between atoms: _307  and  _308
REMARK  118  A    between atoms: _318  and  _320
REMARK  119  A    between atoms: _320  and  _321
REMARK  120  A    between atoms: _320  and  _323
REMARK  121  A    between atoms: _323  and  _324
REMARK  122  A    between atoms: _326  and  _328
REMARK  123  A    between atoms: _328  and  _329
REMARK  124  A    between atoms: _328  and  _331
REMARK  125  A    between atoms: _331  and  _332
REMARK  126  A    between atoms: _337  and  _339
REMARK  127  A    between atoms: _339  and  _340
REMARK  128  A    between atoms: _339  and  _342
REMARK  129  A    between atoms: _342  and  _343
REMARK  130  A    between atoms: _349  and  _351
REMARK  131  A    between atoms: _351  and  _352
REMARK  132  A    between atoms: _351  and  _354
REMARK  133  A    between atoms: _354  and  _355
REMARK  134  A    between atoms: _355  and  _356
REMARK  135  A    between atoms: _359  and  _361
REMARK  136  A    between atoms: _361  and  _362
REMARK  137  A    between atoms: _361  and  _364
REMARK  138  A    between atoms: _364  and  _365
REMARK  139  A    between atoms: _375  and  _377
REMARK  140  A    between atoms: _377  and  _378
REMARK  141  A    between atoms: _377  and  _380
REMARK  142  A    between atoms: _380  and  _381
REMARK  143  A    between atoms: _381  and  _382
REMARK  144  A    between atoms: _385  and  _387
REMARK  145  A    between atoms: _387  and  _388
REMARK  146  A    between atoms: _387  and  _390
REMARK  147  A    between atoms: _390  and  _391
REMARK  148  A    between atoms: _391  and  _392
REMARK  149  A    between atoms: _392  and  _393
REMARK  150  A    between atoms: _393  and  _394
REMARK  151  A    between atoms: _398  and  _400
REMARK  152  A    between atoms: _400  and  _401
REMARK  153  A    between atoms: _400  and  _403
REMARK  154  A    between atoms: _403  and  _404
REMARK                            x       y       z     vdW  Elec       q    Type
REMARK                         _______ _______ _______ _____ _____    ______ ____
ROOT
ATOM      1  O   HOH     1       5.863  15.331   3.731  0.00  0.00    +0.000 OA
ENDROOT
TORSDOF 0
REMARK  Name = ../refined-set-2016/2j7h/2j7h_pocket.pdb
REMARK  154 active torsions:
REMARK  status: ('A' for Active; 'I' for Inactive)
REMARK    1  A    between atoms: _1  and  _3
REMARK    2  A    between atoms: _3  and  _4
REMARK    3  A    between atoms: _7  and  _9
REMARK    4  A    between atoms: _9  and  _10
REMARK    5  A    between atoms: _9  and  _12
REMARK    6  A    between atoms: _12  and  _13
REMARK    7  A    between atoms: _16  and  _18
REMARK    8  A    between atoms: _18  and  _19
REMARK    9  A    between atoms: _22  and  _24
REMARK   10  A    between atoms: _24  and  _25
REMARK   11  A    between atoms: _24  and  _27
REMARK   12  A    between atoms: _27  and  _28
REMARK   13  A    between atoms: _30  and  _32
REMARK   14  A    between atoms: _32  and  _33
REMARK   15  A    between atoms: _32  and  _35
REMARK   16  A    between atoms: _35  and  _36
REMARK   17  A    between atoms: _41  and  _42
REMARK   18  A    between atoms: _44  and  _46
REMARK   19  A    between atoms: _46  and  _47
REMARK   20  A    between atoms: _46  and  _49
REMARK   21  A    between atoms: _49  and  _50
REMARK   22  A    between atoms: _50  and  _51
REMARK   23  A    between atoms: _56  and  _58
REMARK   24  A    between atoms: _58  and  _59
REMARK   25  A    between atoms: _58  and  _61
REMARK   26  A    between atoms: _61  and  _62
REMARK   27  A    between atoms: _62  and  _63
REMARK   28  A    between atoms: _63  and  _64
REMARK   29  A    between atoms: _73  and  _75
REMARK   30  A    between atoms: _75  and  _76
REMARK   31  A    between atoms: _75  and  _78
REMARK   32  A    between atoms: _78  and  _79
REMARK   33  A    between atoms: _82  and  _84
REMARK   34  A    between atoms: _84  and  _85
REMARK   35  A    between atoms: _84  and  _87
REMARK   36  A    between atoms: _87  and  _88
REMARK   37  A    between atoms: _93  and  _95
REMARK   38  A    between atoms: _95  and  _96
REMARK   39  A    between atoms: _95  and  _98
REMARK   40  A    between atoms: _98  and  _99
REMARK   41  A    between atoms: _109  and  _111
REMARK   42  A    between atoms: _111  and  _112
REMARK   43  A    between atoms: _111  and  _114
REMARK   44  A    between atoms: _114  and  _115
REMARK   45  A    between atoms: _120  and  _122
REMARK   46  A    between atoms: _122  and  _123
REMARK   47  A    between atoms: _122  and  _125
REMARK   48  A    between atoms: _125  and  _126
REMARK   49  A    between atoms: _126  and  _127
REMARK   50  A    between atoms: _130  and  _132
REMARK   51  A    between atoms: _132  and  _133
REMARK   52  A    between atoms: _132  and  _135
REMARK   53  A    between atoms: _138  and  _140
REMARK   54  A    between atoms: _140  and  _141
REMARK   55  A    between atoms: _140  and  _143
REMARK   56  A    between atoms: _143  and  _144
REMARK   57  A    between atoms: _149  and  _151
REMARK   58  A    between atoms: _151  and  _152
REMARK   59  A    between atoms: _151  and  _154
REMARK   60  A    between atoms: _157  and  _159
REMARK   61  A    between atoms: _159  and  _160
REMARK   62  A    between atoms: _159  and  _162
REMARK   63  A    between atoms: _162  and  _163
REMARK   64  A    between atoms: _169  and  _171
REMARK   65  A    between atoms: _171  and  _172
REMARK   66  A    between atoms: _171  and  _174
REMARK   67  A    between atoms: _174  and  _175
REMARK   68  A    between atoms: _180  and  _182
REMARK   69  A    between atoms: _182  and  _183
REMARK   70  A    between atoms: _182  and  _185
REMARK   71  A    between atoms: _185  and  _186
REMARK   72  A    between atoms: _191  and  _193
REMARK   73  A    between atoms: _193  and  _194
REMARK   74  A    between atoms: _193  and  _196
REMARK   75  A    between atoms: _196  and  _197
REMARK   76  A    between atoms: _202  and  _204
REMARK   77  A    between atoms: _204  and  _205
REMARK   78  A    between atoms: _204  and  _207
REMARK   79  A    between atoms: _207  and  _208
REMARK   80  A    between atoms: _213  and  _214
REMARK   81  A    between atoms: _216  and  _218
REMARK   82  A    between atoms: _218  and  _219
REMARK   83  A    between atoms: _218  and  _221
REMARK   84  A    between atoms: _221  and  _222
REMARK   85  A    between atoms: _227  and  _228
REMARK   86  A    between atoms: _230  and  _232
REMARK   87  A    between atoms: _232  and  _233
REMARK   88  A    between atoms: _232  and  _235
REMARK   89  A    between atoms: _235  and  _236
REMARK   90  A    between atoms: _236  and  _237
REMARK   91  A    between atoms: _239  and  _241
REMARK   92  A    between atoms: _241  and  _242
REMARK   93  A    between atoms: _241  and  _244
REMARK   94  A    between atoms: _244  and  _245
REMARK   95  A    between atoms: _255  and  _257
REMARK   96  A    between atoms: _257  and  _258
REMARK   97  A    between atoms: _257  and  _260
REMARK   98  A    between atoms: _260  and  _261
REMARK   99  A    between atoms: _264  and  _266
REMARK  100  A    between atoms: _266  and  _267
REMARK  101  A    between atoms: _266  and  _269
REMARK  102  A    between atoms: _269  and  _270
REMARK  103  A    between atoms: _270  and  _271
REMARK  104  A    between atoms: _274  and  _276
REMARK  105  A    between atoms: _276  and  _277
REMARK  106  A    between atoms: _276  and  _279
REMARK  107  A    between atoms: _279  and  _280
REMARK  108  A    between atoms: _285  and  _287
REMARK  109  A    between atoms: _287  and  _288
REMARK  110  A    between atoms: _290  and  _292
REMARK  111  A    between atoms: _292  and  _293
REMARK  112  A    between atoms: _296  and  _298
REMARK  113  A    between atoms: _298  and  _299
REMARK  114  A    between atoms: _302  and  _304
REMARK  115  A    between atoms: _304  and  _305
REMARK  116  A    between atoms: _304  and  _307
REMARK  117  A    between atoms: _307  and  _308
REMARK  118  A    between atoms: _318  and  _320
REMARK  119  A    between atoms: _320  and  _321
REMARK  120  A    between atoms: _320  and  _323
REMARK  121  A    between atoms: _323  and  _324
REMARK  122  A    between atoms: _326  and  _328
REMARK  123  A    between atoms: _328  and  _329
REMARK  124  A    between atoms: _328  and  _331
REMARK  125  A    between atoms: _331  and  _332
REMARK  126  A    between atoms: _337  and  _339
REMARK  127  A    between atoms: _339  and  _340
REMARK  128  A    between atoms: _339  and  _342
REMARK  129  A    between atoms: _342  and  _343
REMARK  130  A    between atoms: _349  and  _351
REMARK  131  A    between atoms: _351  and  _352
REMARK  132  A    between atoms: _351  and  _354
REMARK  133  A    between atoms: _354  and  _355
REMARK  134  A    between atoms: _355  and  _356
REMARK  135  A    between atoms: _359  and  _361
REMARK  136  A    between atoms: _361  and  _362
REMARK  137  A    between atoms: _361  and  _364
REMARK  138  A    between atoms: _364  and  _365
REMARK  139  A    between atoms: _375  and  _377
REMARK  140  A    between atoms: _377  and  _378
REMARK  141  A    between atoms: _377  and  _380
REMARK  142  A    between atoms: _380  and  _381
REMARK  143  A    between atoms: _381  and  _382
REMARK  144  A    between atoms: _385  and  _387
REMARK  145  A    between atoms: _387  and  _388
REMARK  146  A    between atoms: _387  and  _390
REMARK  147  A    between atoms: _390  and  _391
REMARK  148  A    between atoms: _391  and  _392
REMARK  149  A    between atoms: _392  and  _393
REMARK  150  A    between atoms: _393  and  _394
REMARK  151  A    between atoms: _398  and  _400
REMARK  152  A    between atoms: _400  and  _401
REMARK  153  A    between atoms: _400  and  _403
REMARK  154  A    between atoms: _403  and  _404
REMARK                            x       y       z     vdW  Elec       q    Type
REMARK                         _______ _______ _______ _____ _____    ______ ____
ROOT
ATOM      1  O   HOH     1       1.493   4.560  11.076  0.00  0.00    +0.000 OA
ENDROOT
TORSDOF 0
REMARK  Name = ../refined-set-2016/2j7h/2j7h_pocket.pdb
REMARK  154 active torsions:
REMARK  status: ('A' for Active; 'I' for Inactive)
REMARK    1  A    between atoms: _1  and  _3
REMARK    2  A    between atoms: _3  and  _4
REMARK    3  A    between atoms: _7  and  _9
REMARK    4  A    between atoms: _9  and  _10
REMARK    5  A    between atoms: _9  and  _12
REMARK    6  A    between atoms: _12  and  _13
REMARK    7  A    between atoms: _16  and  _18
REMARK    8  A    between atoms: _18  and  _19
REMARK    9  A    between atoms: _22  and  _24
REMARK   10  A    between atoms: _24  and  _25
REMARK   11  A    between atoms: _24  and  _27
REMARK   12  A    between atoms: _27  and  _28
REMARK   13  A    between atoms: _30  and  _32
REMARK   14  A    between atoms: _32  and  _33
REMARK   15  A    between atoms: _32  and  _35
REMARK   16  A    between atoms: _35  and  _36
REMARK   17  A    between atoms: _41  and  _42
REMARK   18  A    between atoms: _44  and  _46
REMARK   19  A    between atoms: _46  and  _47
REMARK   20  A    between atoms: _46  and  _49
REMARK   21  A    between atoms: _49  and  _50
REMARK   22  A    between atoms: _50  and  _51
REMARK   23  A    between atoms: _56  and  _58
REMARK   24  A    between atoms: _58  and  _59
REMARK   25  A    between atoms: _58  and  _61
REMARK   26  A    between atoms: _61  and  _62
REMARK   27  A    between atoms: _62  and  _63
REMARK   28  A    between atoms: _63  and  _64
REMARK   29  A    between atoms: _73  and  _75
REMARK   30  A    between atoms: _75  and  _76
REMARK   31  A    between atoms: _75  and  _78
REMARK   32  A    between atoms: _78  and  _79
REMARK   33  A    between atoms: _82  and  _84
REMARK   34  A    between atoms: _84  and  _85
REMARK   35  A    between atoms: _84  and  _87
REMARK   36  A    between atoms: _87  and  _88
REMARK   37  A    between atoms: _93  and  _95
REMARK   38  A    between atoms: _95  and  _96
REMARK   39  A    between atoms: _95  and  _98
REMARK   40  A    between atoms: _98  and  _99
REMARK   41  A    between atoms: _109  and  _111
REMARK   42  A    between atoms: _111  and  _112
REMARK   43  A    between atoms: _111  and  _114
REMARK   44  A    between atoms: _114  and  _115
REMARK   45  A    between atoms: _120  and  _122
REMARK   46  A    between atoms: _122  and  _123
REMARK   47  A    between atoms: _122  and  _125
REMARK   48  A    between atoms: _125  and  _126
REMARK   49  A    between atoms: _126  and  _127
REMARK   50  A    between atoms: _130  and  _132
REMARK   51  A    between atoms: _132  and  _133
REMARK   52  A    between atoms: _132  and  _135
REMARK   53  A    between atoms: _138  and  _140
REMARK   54  A    between atoms: _140  and  _141
REMARK   55  A    between atoms: _140  and  _143
REMARK   56  A    between atoms: _143  and  _144
REMARK   57  A    between atoms: _149  and  _151
REMARK   58  A    between atoms: _151  and  _152
REMARK   59  A    between atoms: _151  and  _154
REMARK   60  A    between atoms: _157  and  _159
REMARK   61  A    between atoms: _159  and  _160
REMARK   62  A    between atoms: _159  and  _162
REMARK   63  A    between atoms: _162  and  _163
REMARK   64  A    between atoms: _169  and  _171
REMARK   65  A    between atoms: _171  and  _172
REMARK   66  A    between atoms: _171  and  _174
REMARK   67  A    between atoms: _174  and  _175
REMARK   68  A    between atoms: _180  and  _182
REMARK   69  A    between atoms: _182  and  _183
REMARK   70  A    between atoms: _182  and  _185
REMARK   71  A    between atoms: _185  and  _186
REMARK   72  A    between atoms: _191  and  _193
REMARK   73  A    between atoms: _193  and  _194
REMARK   74  A    between atoms: _193  and  _196
REMARK   75  A    between atoms: _196  and  _197
REMARK   76  A    between atoms: _202  and  _204
REMARK   77  A    between atoms: _204  and  _205
REMARK   78  A    between atoms: _204  and  _207
REMARK   79  A    between atoms: _207  and  _208
REMARK   80  A    between atoms: _213  and  _214
REMARK   81  A    between atoms: _216  and  _218
REMARK   82  A    between atoms: _218  and  _219
REMARK   83  A    between atoms: _218  and  _221
REMARK   84  A    between atoms: _221  and  _222
REMARK   85  A    between atoms: _227  and  _228
REMARK   86  A    between atoms: _230  and  _232
REMARK   87  A    between atoms: _232  and  _233
REMARK   88  A    between atoms: _232  and  _235
REMARK   89  A    between atoms: _235  and  _236
REMARK   90  A    between atoms: _236  and  _237
REMARK   91  A    between atoms: _239  and  _241
REMARK   92  A    between atoms: _241  and  _242
REMARK   93  A    between atoms: _241  and  _244
REMARK   94  A    between atoms: _244  and  _245
REMARK   95  A    between atoms: _255  and  _257
REMARK   96  A    between atoms: _257  and  _258
REMARK   97  A    between atoms: _257  and  _260
REMARK   98  A    between atoms: _260  and  _261
REMARK   99  A    between atoms: _264  and  _266
REMARK  100  A    between atoms: _266  and  _267
REMARK  101  A    between atoms: _266  and  _269
REMARK  102  A    between atoms: _269  and  _270
REMARK  103  A    between atoms: _270  and  _271
REMARK  104  A    between atoms: _274  and  _276
REMARK  105  A    between atoms: _276  and  _277
REMARK  106  A    between atoms: _276  and  _279
REMARK  107  A    between atoms: _279  and  _280
REMARK  108  A    between atoms: _285  and  _287
REMARK  109  A    between atoms: _287  and  _288
REMARK  110  A    between atoms: _290  and  _292
REMARK  111  A    between atoms: _292  and  _293
REMARK  112  A    between atoms: _296  and  _298
REMARK  113  A    between atoms: _298  and  _299
REMARK  114  A    between atoms: _302  and  _304
REMARK  115  A    between atoms: _304  and  _305
REMARK  116  A    between atoms: _304  and  _307
REMARK  117  A    between atoms: _307  and  _308
REMARK  118  A    between atoms: _318  and  _320
REMARK  119  A    between atoms: _320  and  _321
REMARK  120  A    between atoms: _320  and  _323
REMARK  121  A    between atoms: _323  and  _324
REMARK  122  A    between atoms: _326  and  _328
REMARK  123  A    between atoms: _328  and  _329
REMARK  124  A    between atoms: _328  and  _331
REMARK  125  A    between atoms: _331  and  _332
REMARK  126  A    between atoms: _337  and  _339
REMARK  127  A    between atoms: _339  and  _340
REMARK  128  A    between atoms: _339  and  _342
REMARK  129  A    between atoms: _342  and  _343
REMARK  130  A    between atoms: _349  and  _351
REMARK  131  A    between atoms: _351  and  _352
REMARK  132  A    between atoms: _351  and  _354
REMARK  133  A    between atoms: _354  and  _355
REMARK  134  A    between atoms: _355  and  _356
REMARK  135  A    between atoms: _359  and  _361
REMARK  136  A    between atoms: _361  and  _362
REMARK  137  A    between atoms: _361  and  _364
REMARK  138  A    between atoms: _364  and  _365
REMARK  139  A    between atoms: _375  and  _377
REMARK  140  A    between atoms: _377  and  _378
REMARK  141  A    between atoms: _377  and  _380
REMARK  142  A    between atoms: _380  and  _381
REMARK  143  A    between atoms: _381  and  _382
REMARK  144  A    between atoms: _385  and  _387
REMARK  145  A    between atoms: _387  and  _388
REMARK  146  A    between atoms: _387  and  _390
REMARK  147  A    between atoms: _390  and  _391
REMARK  148  A    between atoms: _391  and  _392
REMARK  149  A    between atoms: _392  and  _393
REMARK  150  A    between atoms: _393  and  _394
REMARK  151  A    between atoms: _398  and  _400
REMARK  152  A    between atoms: _400  and  _401
REMARK  153  A    between atoms: _400  and  _403
REMARK  154  A    between atoms: _403  and  _404
REMARK                            x       y       z     vdW  Elec       q    Type
REMARK                         _______ _______ _______ _____ _____    ______ ____
ROOT
ATOM      1  O   HOH     1       1.308   6.472   9.831  0.00  0.00    +0.000 OA
ENDROOT
TORSDOF 0
REMARK  Name = ../refined-set-2016/2j7h/2j7h_pocket.pdb
REMARK  154 active torsions:
REMARK  status: ('A' for Active; 'I' for Inactive)
REMARK    1  A    between atoms: _1  and  _3
REMARK    2  A    between atoms: _3  and  _4
REMARK    3  A    between atoms: _7  and  _9
REMARK    4  A    between atoms: _9  and  _10
REMARK    5  A    between atoms: _9  and  _12
REMARK    6  A    between atoms: _12  and  _13
REMARK    7  A    between atoms: _16  and  _18
REMARK    8  A    between atoms: _18  and  _19
REMARK    9  A    between atoms: _22  and  _24
REMARK   10  A    between atoms: _24  and  _25
REMARK   11  A    between atoms: _24  and  _27
REMARK   12  A    between atoms: _27  and  _28
REMARK   13  A    between atoms: _30  and  _32
REMARK   14  A    between atoms: _32  and  _33
REMARK   15  A    between atoms: _32  and  _35
REMARK   16  A    between atoms: _35  and  _36
REMARK   17  A    between atoms: _41  and  _42
REMARK   18  A    between atoms: _44  and  _46
REMARK   19  A    between atoms: _46  and  _47
REMARK   20  A    between atoms: _46  and  _49
REMARK   21  A    between atoms: _49  and  _50
REMARK   22  A    between atoms: _50  and  _51
REMARK   23  A    between atoms: _56  and  _58
REMARK   24  A    between atoms: _58  and  _59
REMARK   25  A    between atoms: _58  and  _61
REMARK   26  A    between atoms: _61  and  _62
REMARK   27  A    between atoms: _62  and  _63
REMARK   28  A    between atoms: _63  and  _64
REMARK   29  A    between atoms: _73  and  _75
REMARK   30  A    between atoms: _75  and  _76
REMARK   31  A    between atoms: _75  and  _78
REMARK   32  A    between atoms: _78  and  _79
REMARK   33  A    between atoms: _82  and  _84
REMARK   34  A    between atoms: _84  and  _85
REMARK   35  A    between atoms: _84  and  _87
REMARK   36  A    between atoms: _87  and  _88
REMARK   37  A    between atoms: _93  and  _95
REMARK   38  A    between atoms: _95  and  _96
REMARK   39  A    between atoms: _95  and  _98
REMARK   40  A    between atoms: _98  and  _99
REMARK   41  A    between atoms: _109  and  _111
REMARK   42  A    between atoms: _111  and  _112
REMARK   43  A    between atoms: _111  and  _114
REMARK   44  A    between atoms: _114  and  _115
REMARK   45  A    between atoms: _120  and  _122
REMARK   46  A    between atoms: _122  and  _123
REMARK   47  A    between atoms: _122  and  _125
REMARK   48  A    between atoms: _125  and  _126
REMARK   49  A    between atoms: _126  and  _127
REMARK   50  A    between atoms: _130  and  _132
REMARK   51  A    between atoms: _132  and  _133
REMARK   52  A    between atoms: _132  and  _135
REMARK   53  A    between atoms: _138  and  _140
REMARK   54  A    between atoms: _140  and  _141
REMARK   55  A    between atoms: _140  and  _143
REMARK   56  A    between atoms: _143  and  _144
REMARK   57  A    between atoms: _149  and  _151
REMARK   58  A    between atoms: _151  and  _152
REMARK   59  A    between atoms: _151  and  _154
REMARK   60  A    between atoms: _157  and  _159
REMARK   61  A    between atoms: _159  and  _160
REMARK   62  A    between atoms: _159  and  _162
REMARK   63  A    between atoms: _162  and  _163
REMARK   64  A    between atoms: _169  and  _171
REMARK   65  A    between atoms: _171  and  _172
REMARK   66  A    between atoms: _171  and  _174
REMARK   67  A    between atoms: _174  and  _175
REMARK   68  A    between atoms: _180  and  _182
REMARK   69  A    between atoms: _182  and  _183
REMARK   70  A    between atoms: _182  and  _185
REMARK   71  A    between atoms: _185  and  _186
REMARK   72  A    between atoms: _191  and  _193
REMARK   73  A    between atoms: _193  and  _194
REMARK   74  A    between atoms: _193  and  _196
REMARK   75  A    between atoms: _196  and  _197
REMARK   76  A    between atoms: _202  and  _204
REMARK   77  A    between atoms: _204  and  _205
REMARK   78  A    between atoms: _204  and  _207
REMARK   79  A    between atoms: _207  and  _208
REMARK   80  A    between atoms: _213  and  _214
REMARK   81  A    between atoms: _216  and  _218
REMARK   82  A    between atoms: _218  and  _219
REMARK   83  A    between atoms: _218  and  _221
REMARK   84  A    between atoms: _221  and  _222
REMARK   85  A    between atoms: _227  and  _228
REMARK   86  A    between atoms: _230  and  _232
REMARK   87  A    between atoms: _232  and  _233
REMARK   88  A    between atoms: _232  and  _235
REMARK   89  A    between atoms: _235  and  _236
REMARK   90  A    between atoms: _236  and  _237
REMARK   91  A    between atoms: _239  and  _241
REMARK   92  A    between atoms: _241  and  _242
REMARK   93  A    between atoms: _241  and  _244
REMARK   94  A    between atoms: _244  and  _245
REMARK   95  A    between atoms: _255  and  _257
REMARK   96  A    between atoms: _257  and  _258
REMARK   97  A    between atoms: _257  and  _260
REMARK   98  A    between atoms: _260  and  _261
REMARK   99  A    between atoms: _264  and  _266
REMARK  100  A    between atoms: _266  and  _267
REMARK  101  A    between atoms: _266  and  _269
REMARK  102  A    between atoms: _269  and  _270
REMARK  103  A    between atoms: _270  and  _271
REMARK  104  A    between atoms: _274  and  _276
REMARK  105  A    between atoms: _276  and  _277
REMARK  106  A    between atoms: _276  and  _279
REMARK  107  A    between atoms: _279  and  _280
REMARK  108  A    between atoms: _285  and  _287
REMARK  109  A    between atoms: _287  and  _288
REMARK  110  A    between atoms: _290  and  _292
REMARK  111  A    between atoms: _292  and  _293
REMARK  112  A    between atoms: _296  and  _298
REMARK  113  A    between atoms: _298  and  _299
REMARK  114  A    between atoms: _302  and  _304
REMARK  115  A    between atoms: _304  and  _305
REMARK  116  A    between atoms: _304  and  _307
REMARK  117  A    between atoms: _307  and  _308
REMARK  118  A    between atoms: _318  and  _320
REMARK  119  A    between atoms: _320  and  _321
REMARK  120  A    between atoms: _320  and  _323
REMARK  121  A    between atoms: _323  and  _324
REMARK  122  A    between atoms: _326  and  _328
REMARK  123  A    between atoms: _328  and  _329
REMARK  124  A    between atoms: _328  and  _331
REMARK  125  A    between atoms: _331  and  _332
REMARK  126  A    between atoms: _337  and  _339
REMARK  127  A    between atoms: _339  and  _340
REMARK  128  A    between atoms: _339  and  _342
REMARK  129  A    between atoms: _342  and  _343
REMARK  130  A    between atoms: _349  and  _351
REMARK  131  A    between atoms: _351  and  _352
REMARK  132  A    between atoms: _351  and  _354
REMARK  133  A    between atoms: _354  and  _355
REMARK  134  A    between atoms: _355  and  _356
REMARK  135  A    between atoms: _359  and  _361
REMARK  136  A    between atoms: _361  and  _362
REMARK  137  A    between atoms: _361  and  _364
REMARK  138  A    between atoms: _364  and  _365
REMARK  139  A    between atoms: _375  and  _377
REMARK  140  A    between atoms: _377  and  _378
REMARK  141  A    between atoms: _377  and  _380
REMARK  142  A    between atoms: _380  and  _381
REMARK  143  A    between atoms: _381  and  _382
REMARK  144  A    between atoms: _385  and  _387
REMARK  145  A    between atoms: _387  and  _388
REMARK  146  A    between atoms: _387  and  _390
REMARK  147  A    between atoms: _390  and  _391
REMARK  148  A    between atoms: _391  and  _392
REMARK  149  A    between atoms: _392  and  _393
REMARK  150  A    between atoms: _393  and  _394
REMARK  151  A    between atoms: _398  and  _400
REMARK  152  A    between atoms: _400  and  _401
REMARK  153  A    between atoms: _400  and  _403
REMARK  154  A    between atoms: _403  and  _404
REMARK                            x       y       z     vdW  Elec       q    Type
REMARK                         _______ _______ _______ _____ _____    ______ ____
ROOT
ATOM      1  O   HOH     1       2.002  18.923   8.141  0.00  0.00    +0.000 OA
ENDROOT
TORSDOF 0
REMARK  Name = ../refined-set-2016/2j7h/2j7h_pocket.pdb
REMARK  154 active torsions:
REMARK  status: ('A' for Active; 'I' for Inactive)
REMARK    1  A    between atoms: _1  and  _3
REMARK    2  A    between atoms: _3  and  _4
REMARK    3  A    between atoms: _7  and  _9
REMARK    4  A    between atoms: _9  and  _10
REMARK    5  A    between atoms: _9  and  _12
REMARK    6  A    between atoms: _12  and  _13
REMARK    7  A    between atoms: _16  and  _18
REMARK    8  A    between atoms: _18  and  _19
REMARK    9  A    between atoms: _22  and  _24
REMARK   10  A    between atoms: _24  and  _25
REMARK   11  A    between atoms: _24  and  _27
REMARK   12  A    between atoms: _27  and  _28
REMARK   13  A    between atoms: _30  and  _32
REMARK   14  A    between atoms: _32  and  _33
REMARK   15  A    between atoms: _32  and  _35
REMARK   16  A    between atoms: _35  and  _36
REMARK   17  A    between atoms: _41  and  _42
REMARK   18  A    between atoms: _44  and  _46
REMARK   19  A    between atoms: _46  and  _47
REMARK   20  A    between atoms: _46  and  _49
REMARK   21  A    between atoms: _49  and  _50
REMARK   22  A    between atoms: _50  and  _51
REMARK   23  A    between atoms: _56  and  _58
REMARK   24  A    between atoms: _58  and  _59
REMARK   25  A    between atoms: _58  and  _61
REMARK   26  A    between atoms: _61  and  _62
REMARK   27  A    between atoms: _62  and  _63
REMARK   28  A    between atoms: _63  and  _64
REMARK   29  A    between atoms: _73  and  _75
REMARK   30  A    between atoms: _75  and  _76
REMARK   31  A    between atoms: _75  and  _78
REMARK   32  A    between atoms: _78  and  _79
REMARK   33  A    between atoms: _82  and  _84
REMARK   34  A    between atoms: _84  and  _85
REMARK   35  A    between atoms: _84  and  _87
REMARK   36  A    between atoms: _87  and  _88
REMARK   37  A    between atoms: _93  and  _95
REMARK   38  A    between atoms: _95  and  _96
REMARK   39  A    between atoms: _95  and  _98
REMARK   40  A    between atoms: _98  and  _99
REMARK   41  A    between atoms: _109  and  _111
REMARK   42  A    between atoms: _111  and  _112
REMARK   43  A    between atoms: _111  and  _114
REMARK   44  A    between atoms: _114  and  _115
REMARK   45  A    between atoms: _120  and  _122
REMARK   46  A    between atoms: _122  and  _123
REMARK   47  A    between atoms: _122  and  _125
REMARK   48  A    between atoms: _125  and  _126
REMARK   49  A    between atoms: _126  and  _127
REMARK   50  A    between atoms: _130  and  _132
REMARK   51  A    between atoms: _132  and  _133
REMARK   52  A    between atoms: _132  and  _135
REMARK   53  A    between atoms: _138  and  _140
REMARK   54  A    between atoms: _140  and  _141
REMARK   55  A    between atoms: _140  and  _143
REMARK   56  A    between atoms: _143  and  _144
REMARK   57  A    between atoms: _149  and  _151
REMARK   58  A    between atoms: _151  and  _152
REMARK   59  A    between atoms: _151  and  _154
REMARK   60  A    between atoms: _157  and  _159
REMARK   61  A    between atoms: _159  and  _160
REMARK   62  A    between atoms: _159  and  _162
REMARK   63  A    between atoms: _162  and  _163
REMARK   64  A    between atoms: _169  and  _171
REMARK   65  A    between atoms: _171  and  _172
REMARK   66  A    between atoms: _171  and  _174
REMARK   67  A    between atoms: _174  and  _175
REMARK   68  A    between atoms: _180  and  _182
REMARK   69  A    between atoms: _182  and  _183
REMARK   70  A    between atoms: _182  and  _185
REMARK   71  A    between atoms: _185  and  _186
REMARK   72  A    between atoms: _191  and  _193
REMARK   73  A    between atoms: _193  and  _194
REMARK   74  A    between atoms: _193  and  _196
REMARK   75  A    between atoms: _196  and  _197
REMARK   76  A    between atoms: _202  and  _204
REMARK   77  A    between atoms: _204  and  _205
REMARK   78  A    between atoms: _204  and  _207
REMARK   79  A    between atoms: _207  and  _208
REMARK   80  A    between atoms: _213  and  _214
REMARK   81  A    between atoms: _216  and  _218
REMARK   82  A    between atoms: _218  and  _219
REMARK   83  A    between atoms: _218  and  _221
REMARK   84  A    between atoms: _221  and  _222
REMARK   85  A    between atoms: _227  and  _228
REMARK   86  A    between atoms: _230  and  _232
REMARK   87  A    between atoms: _232  and  _233
REMARK   88  A    between atoms: _232  and  _235
REMARK   89  A    between atoms: _235  and  _236
REMARK   90  A    between atoms: _236  and  _237
REMARK   91  A    between atoms: _239  and  _241
REMARK   92  A    between atoms: _241  and  _242
REMARK   93  A    between atoms: _241  and  _244
REMARK   94  A    between atoms: _244  and  _245
REMARK   95  A    between atoms: _255  and  _257
REMARK   96  A    between atoms: _257  and  _258
REMARK   97  A    between atoms: _257  and  _260
REMARK   98  A    between atoms: _260  and  _261
REMARK   99  A    between atoms: _264  and  _266
REMARK  100  A    between atoms: _266  and  _267
REMARK  101  A    between atoms: _266  and  _269
REMARK  102  A    between atoms: _269  and  _270
REMARK  103  A    between atoms: _270  and  _271
REMARK  104  A    between atoms: _274  and  _276
REMARK  105  A    between atoms: _276  and  _277
REMARK  106  A    between atoms: _276  and  _279
REMARK  107  A    between atoms: _279  and  _280
REMARK  108  A    between atoms: _285  and  _287
REMARK  109  A    between atoms: _287  and  _288
REMARK  110  A    between atoms: _290  and  _292
REMARK  111  A    between atoms: _292  and  _293
REMARK  112  A    between atoms: _296  and  _298
REMARK  113  A    between atoms: _298  and  _299
REMARK  114  A    between atoms: _302  and  _304
REMARK  115  A    between atoms: _304  and  _305
REMARK  116  A    between atoms: _304  and  _307
REMARK  117  A    between atoms: _307  and  _308
REMARK  118  A    between atoms: _318  and  _320
REMARK  119  A    between atoms: _320  and  _321
REMARK  120  A    between atoms: _320  and  _323
REMARK  121  A    between atoms: _323  and  _324
REMARK  122  A    between atoms: _326  and  _328
REMARK  123  A    between atoms: _328  and  _329
REMARK  124  A    between atoms: _328  and  _331
REMARK  125  A    between atoms: _331  and  _332
REMARK  126  A    between atoms: _337  and  _339
REMARK  127  A    between atoms: _339  and  _340
REMARK  128  A    between atoms: _339  and  _342
REMARK  129  A    between atoms: _342  and  _343
REMARK  130  A    between atoms: _349  and  _351
REMARK  131  A    between atoms: _351  and  _352
REMARK  132  A    between atoms: _351  and  _354
REMARK  133  A    between atoms: _354  and  _355
REMARK  134  A    between atoms: _355  and  _356
REMARK  135  A    between atoms: _359  and  _361
REMARK  136  A    between atoms: _361  and  _362
REMARK  137  A    between atoms: _361  and  _364
REMARK  138  A    between atoms: _364  and  _365
REMARK  139  A    between atoms: _375  and  _377
REMARK  140  A    between atoms: _377  and  _378
REMARK  141  A    between atoms: _377  and  _380
REMARK  142  A    between atoms: _380  and  _381
REMARK  143  A    between atoms: _381  and  _382
REMARK  144  A    between atoms: _385  and  _387
REMARK  145  A    between atoms: _387  and  _388
REMARK  146  A    between atoms: _387  and  _390
REMARK  147  A    between atoms: _390  and  _391
REMARK  148  A    between atoms: _391  and  _392
REMARK  149  A    between atoms: _392  and  _393
REMARK  150  A    between atoms: _393  and  _394
REMARK  151  A    between atoms: _398  and  _400
REMARK  152  A    between atoms: _400  and  _401
REMARK  153  A    between atoms: _400  and  _403
REMARK  154  A    between atoms: _403  and  _404
REMARK                            x       y       z     vdW  Elec       q    Type
REMARK                         _______ _______ _______ _____ _____    ______ ____
ROOT
ATOM      1  O   HOH     1      -1.489   9.357  13.868  0.00  0.00    +0.000 OA
ENDROOT
TORSDOF 0
REMARK  Name = ../refined-set-2016/2j7h/2j7h_pocket.pdb
REMARK  154 active torsions:
REMARK  status: ('A' for Active; 'I' for Inactive)
REMARK    1  A    between atoms: _1  and  _3
REMARK    2  A    between atoms: _3  and  _4
REMARK    3  A    between atoms: _7  and  _9
REMARK    4  A    between atoms: _9  and  _10
REMARK    5  A    between atoms: _9  and  _12
REMARK    6  A    between atoms: _12  and  _13
REMARK    7  A    between atoms: _16  and  _18
REMARK    8  A    between atoms: _18  and  _19
REMARK    9  A    between atoms: _22  and  _24
REMARK   10  A    between atoms: _24  and  _25
REMARK   11  A    between atoms: _24  and  _27
REMARK   12  A    between atoms: _27  and  _28
REMARK   13  A    between atoms: _30  and  _32
REMARK   14  A    between atoms: _32  and  _33
REMARK   15  A    between atoms: _32  and  _35
REMARK   16  A    between atoms: _35  and  _36
REMARK   17  A    between atoms: _41  and  _42
REMARK   18  A    between atoms: _44  and  _46
REMARK   19  A    between atoms: _46  and  _47
REMARK   20  A    between atoms: _46  and  _49
REMARK   21  A    between atoms: _49  and  _50
REMARK   22  A    between atoms: _50  and  _51
REMARK   23  A    between atoms: _56  and  _58
REMARK   24  A    between atoms: _58  and  _59
REMARK   25  A    between atoms: _58  and  _61
REMARK   26  A    between atoms: _61  and  _62
REMARK   27  A    between atoms: _62  and  _63
REMARK   28  A    between atoms: _63  and  _64
REMARK   29  A    between atoms: _73  and  _75
REMARK   30  A    between atoms: _75  and  _76
REMARK   31  A    between atoms: _75  and  _78
REMARK   32  A    between atoms: _78  and  _79
REMARK   33  A    between atoms: _82  and  _84
REMARK   34  A    between atoms: _84  and  _85
REMARK   35  A    between atoms: _84  and  _87
REMARK   36  A    between atoms: _87  and  _88
REMARK   37  A    between atoms: _93  and  _95
REMARK   38  A    between atoms: _95  and  _96
REMARK   39  A    between atoms: _95  and  _98
REMARK   40  A    between atoms: _98  and  _99
REMARK   41  A    between atoms: _109  and  _111
REMARK   42  A    between atoms: _111  and  _112
REMARK   43  A    between atoms: _111  and  _114
REMARK   44  A    between atoms: _114  and  _115
REMARK   45  A    between atoms: _120  and  _122
REMARK   46  A    between atoms: _122  and  _123
REMARK   47  A    between atoms: _122  and  _125
REMARK   48  A    between atoms: _125  and  _126
REMARK   49  A    between atoms: _126  and  _127
REMARK   50  A    between atoms: _130  and  _132
REMARK   51  A    between atoms: _132  and  _133
REMARK   52  A    between atoms: _132  and  _135
REMARK   53  A    between atoms: _138  and  _140
REMARK   54  A    between atoms: _140  and  _141
REMARK   55  A    between atoms: _140  and  _143
REMARK   56  A    between atoms: _143  and  _144
REMARK   57  A    between atoms: _149  and  _151
REMARK   58  A    between atoms: _151  and  _152
REMARK   59  A    between atoms: _151  and  _154
REMARK   60  A    between atoms: _157  and  _159
REMARK   61  A    between atoms: _159  and  _160
REMARK   62  A    between atoms: _159  and  _162
REMARK   63  A    between atoms: _162  and  _163
REMARK   64  A    between atoms: _169  and  _171
REMARK   65  A    between atoms: _171  and  _172
REMARK   66  A    between atoms: _171  and  _174
REMARK   67  A    between atoms: _174  and  _175
REMARK   68  A    between atoms: _180  and  _182
REMARK   69  A    between atoms: _182  and  _183
REMARK   70  A    between atoms: _182  and  _185
REMARK   71  A    between atoms: _185  and  _186
REMARK   72  A    between atoms: _191  and  _193
REMARK   73  A    between atoms: _193  and  _194
REMARK   74  A    between atoms: _193  and  _196
REMARK   75  A    between atoms: _196  and  _197
REMARK   76  A    between atoms: _202  and  _204
REMARK   77  A    between atoms: _204  and  _205
REMARK   78  A    between atoms: _204  and  _207
REMARK   79  A    between atoms: _207  and  _208
REMARK   80  A    between atoms: _213  and  _214
REMARK   81  A    between atoms: _216  and  _218
REMARK   82  A    between atoms: _218  and  _219
REMARK   83  A    between atoms: _218  and  _221
REMARK   84  A    between atoms: _221  and  _222
REMARK   85  A    between atoms: _227  and  _228
REMARK   86  A    between atoms: _230  and  _232
REMARK   87  A    between atoms: _232  and  _233
REMARK   88  A    between atoms: _232  and  _235
REMARK   89  A    between atoms: _235  and  _236
REMARK   90  A    between atoms: _236  and  _237
REMARK   91  A    between atoms: _239  and  _241
REMARK   92  A    between atoms: _241  and  _242
REMARK   93  A    between atoms: _241  and  _244
REMARK   94  A    between atoms: _244  and  _245
REMARK   95  A    between atoms: _255  and  _257
REMARK   96  A    between atoms: _257  and  _258
REMARK   97  A    between atoms: _257  and  _260
REMARK   98  A    between atoms: _260  and  _261
REMARK   99  A    between atoms: _264  and  _266
REMARK  100  A    between atoms: _266  and  _267
REMARK  101  A    between atoms: _266  and  _269
REMARK  102  A    between atoms: _269  and  _270
REMARK  103  A    between atoms: _270  and  _271
REMARK  104  A    between atoms: _274  and  _276
REMARK  105  A    between atoms: _276  and  _277
REMARK  106  A    between atoms: _276  and  _279
REMARK  107  A    between atoms: _279  and  _280
REMARK  108  A    between atoms: _285  and  _287
REMARK  109  A    between atoms: _287  and  _288
REMARK  110  A    between atoms: _290  and  _292
REMARK  111  A    between atoms: _292  and  _293
REMARK  112  A    between atoms: _296  and  _298
REMARK  113  A    between atoms: _298  and  _299
REMARK  114  A    between atoms: _302  and  _304
REMARK  115  A    between atoms: _304  and  _305
REMARK  116  A    between atoms: _304  and  _307
REMARK  117  A    between atoms: _307  and  _308
REMARK  118  A    between atoms: _318  and  _320
REMARK  119  A    between atoms: _320  and  _321
REMARK  120  A    between atoms: _320  and  _323
REMARK  121  A    between atoms: _323  and  _324
REMARK  122  A    between atoms: _326  and  _328
REMARK  123  A    between atoms: _328  and  _329
REMARK  124  A    between atoms: _328  and  _331
REMARK  125  A    between atoms: _331  and  _332
REMARK  126  A    between atoms: _337  and  _339
REMARK  127  A    between atoms: _339  and  _340
REMARK  128  A    between atoms: _339  and  _342
REMARK  129  A    between atoms: _342  and  _343
REMARK  130  A    between atoms: _349  and  _351
REMARK  131  A    between atoms: _351  and  _352
REMARK  132  A    between atoms: _351  and  _354
REMARK  133  A    between atoms: _354  and  _355
REMARK  134  A    between atoms: _355  and  _356
REMARK  135  A    between atoms: _359  and  _361
REMARK  136  A    between atoms: _361  and  _362
REMARK  137  A    between atoms: _361  and  _364
REMARK  138  A    between atoms: _364  and  _365
REMARK  139  A    between atoms: _375  and  _377
REMARK  140  A    between atoms: _377  and  _378
REMARK  141  A    between atoms: _377  and  _380
REMARK  142  A    between atoms: _380  and  _381
REMARK  143  A    between atoms: _381  and  _382
REMARK  144  A    between atoms: _385  and  _387
REMARK  145  A    between atoms: _387  and  _388
REMARK  146  A    between atoms: _387  and  _390
REMARK  147  A    between atoms: _390  and  _391
REMARK  148  A    between atoms: _391  and  _392
REMARK  149  A    between atoms: _392  and  _393
REMARK  150  A    between atoms: _393  and  _394
REMARK  151  A    between atoms: _398  and  _400
REMARK  152  A    between atoms: _400  and  _401
REMARK  153  A    between atoms: _400  and  _403
REMARK  154  A    between atoms: _403  and  _404
REMARK                            x       y       z     vdW  Elec       q    Type
REMARK                         _______ _______ _______ _____ _____    ______ ____
ROOT
ATOM      1  O   HOH     1       0.504   8.557  11.456  0.00  0.00    +0.000 OA
ENDROOT
TORSDOF 0
REMARK  Name = ../refined-set-2016/2j7h/2j7h_pocket.pdb
REMARK  154 active torsions:
REMARK  status: ('A' for Active; 'I' for Inactive)
REMARK    1  A    between atoms: _1  and  _3
REMARK    2  A    between atoms: _3  and  _4
REMARK    3  A    between atoms: _7  and  _9
REMARK    4  A    between atoms: _9  and  _10
REMARK    5  A    between atoms: _9  and  _12
REMARK    6  A    between atoms: _12  and  _13
REMARK    7  A    between atoms: _16  and  _18
REMARK    8  A    between atoms: _18  and  _19
REMARK    9  A    between atoms: _22  and  _24
REMARK   10  A    between atoms: _24  and  _25
REMARK   11  A    between atoms: _24  and  _27
REMARK   12  A    between atoms: _27  and  _28
REMARK   13  A    between atoms: _30  and  _32
REMARK   14  A    between atoms: _32  and  _33
REMARK   15  A    between atoms: _32  and  _35
REMARK   16  A    between atoms: _35  and  _36
REMARK   17  A    between atoms: _41  and  _42
REMARK   18  A    between atoms: _44  and  _46
REMARK   19  A    between atoms: _46  and  _47
REMARK   20  A    between atoms: _46  and  _49
REMARK   21  A    between atoms: _49  and  _50
REMARK   22  A    between atoms: _50  and  _51
REMARK   23  A    between atoms: _56  and  _58
REMARK   24  A    between atoms: _58  and  _59
REMARK   25  A    between atoms: _58  and  _61
REMARK   26  A    between atoms: _61  and  _62
REMARK   27  A    between atoms: _62  and  _63
REMARK   28  A    between atoms: _63  and  _64
REMARK   29  A    between atoms: _73  and  _75
REMARK   30  A    between atoms: _75  and  _76
REMARK   31  A    between atoms: _75  and  _78
REMARK   32  A    between atoms: _78  and  _79
REMARK   33  A    between atoms: _82  and  _84
REMARK   34  A    between atoms: _84  and  _85
REMARK   35  A    between atoms: _84  and  _87
REMARK   36  A    between atoms: _87  and  _88
REMARK   37  A    between atoms: _93  and  _95
REMARK   38  A    between atoms: _95  and  _96
REMARK   39  A    between atoms: _95  and  _98
REMARK   40  A    between atoms: _98  and  _99
REMARK   41  A    between atoms: _109  and  _111
REMARK   42  A    between atoms: _111  and  _112
REMARK   43  A    between atoms: _111  and  _114
REMARK   44  A    between atoms: _114  and  _115
REMARK   45  A    between atoms: _120  and  _122
REMARK   46  A    between atoms: _122  and  _123
REMARK   47  A    between atoms: _122  and  _125
REMARK   48  A    between atoms: _125  and  _126
REMARK   49  A    between atoms: _126  and  _127
REMARK   50  A    between atoms: _130  and  _132
REMARK   51  A    between atoms: _132  and  _133
REMARK   52  A    between atoms: _132  and  _135
REMARK   53  A    between atoms: _138  and  _140
REMARK   54  A    between atoms: _140  and  _141
REMARK   55  A    between atoms: _140  and  _143
REMARK   56  A    between atoms: _143  and  _144
REMARK   57  A    between atoms: _149  and  _151
REMARK   58  A    between atoms: _151  and  _152
REMARK   59  A    between atoms: _151  and  _154
REMARK   60  A    between atoms: _157  and  _159
REMARK   61  A    between atoms: _159  and  _160
REMARK   62  A    between atoms: _159  and  _162
REMARK   63  A    between atoms: _162  and  _163
REMARK   64  A    between atoms: _169  and  _171
REMARK   65  A    between atoms: _171  and  _172
REMARK   66  A    between atoms: _171  and  _174
REMARK   67  A    between atoms: _174  and  _175
REMARK   68  A    between atoms: _180  and  _182
REMARK   69  A    between atoms: _182  and  _183
REMARK   70  A    between atoms: _182  and  _185
REMARK   71  A    between atoms: _185  and  _186
REMARK   72  A    between atoms: _191  and  _193
REMARK   73  A    between atoms: _193  and  _194
REMARK   74  A    between atoms: _193  and  _196
REMARK   75  A    between atoms: _196  and  _197
REMARK   76  A    between atoms: _202  and  _204
REMARK   77  A    between atoms: _204  and  _205
REMARK   78  A    between atoms: _204  and  _207
REMARK   79  A    between atoms: _207  and  _208
REMARK   80  A    between atoms: _213  and  _214
REMARK   81  A    between atoms: _216  and  _218
REMARK   82  A    between atoms: _218  and  _219
REMARK   83  A    between atoms: _218  and  _221
REMARK   84  A    between atoms: _221  and  _222
REMARK   85  A    between atoms: _227  and  _228
REMARK   86  A    between atoms: _230  and  _232
REMARK   87  A    between atoms: _232  and  _233
REMARK   88  A    between atoms: _232  and  _235
REMARK   89  A    between atoms: _235  and  _236
REMARK   90  A    between atoms: _236  and  _237
REMARK   91  A    between atoms: _239  and  _241
REMARK   92  A    between atoms: _241  and  _242
REMARK   93  A    between atoms: _241  and  _244
REMARK   94  A    between atoms: _244  and  _245
REMARK   95  A    between atoms: _255  and  _257
REMARK   96  A    between atoms: _257  and  _258
REMARK   97  A    between atoms: _257  and  _260
REMARK   98  A    between atoms: _260  and  _261
REMARK   99  A    between atoms: _264  and  _266
REMARK  100  A    between atoms: _266  and  _267
REMARK  101  A    between atoms: _266  and  _269
REMARK  102  A    between atoms: _269  and  _270
REMARK  103  A    between atoms: _270  and  _271
REMARK  104  A    between atoms: _274  and  _276
REMARK  105  A    between atoms: _276  and  _277
REMARK  106  A    between atoms: _276  and  _279
REMARK  107  A    between atoms: _279  and  _280
REMARK  108  A    between atoms: _285  and  _287
REMARK  109  A    between atoms: _287  and  _288
REMARK  110  A    between atoms: _290  and  _292
REMARK  111  A    between atoms: _292  and  _293
REMARK  112  A    between atoms: _296  and  _298
REMARK  113  A    between atoms: _298  and  _299
REMARK  114  A    between atoms: _302  and  _304
REMARK  115  A    between atoms: _304  and  _305
REMARK  116  A    between atoms: _304  and  _307
REMARK  117  A    between atoms: _307  and  _308
REMARK  118  A    between atoms: _318  and  _320
REMARK  119  A    between atoms: _320  and  _321
REMARK  120  A    between atoms: _320  and  _323
REMARK  121  A    between atoms: _323  and  _324
REMARK  122  A    between atoms: _326  and  _328
REMARK  123  A    between atoms: _328  and  _329
REMARK  124  A    between atoms: _328  and  _331
REMARK  125  A    between atoms: _331  and  _332
REMARK  126  A    between atoms: _337  and  _339
REMARK  127  A    between atoms: _339  and  _340
REMARK  128  A    between atoms: _339  and  _342
REMARK  129  A    between atoms: _342  and  _343
REMARK  130  A    between atoms: _349  and  _351
REMARK  131  A    between atoms: _351  and  _352
REMARK  132  A    between atoms: _351  and  _354
REMARK  133  A    between atoms: _354  and  _355
REMARK  134  A    between atoms: _355  and  _356
REMARK  135  A    between atoms: _359  and  _361
REMARK  136  A    between atoms: _361  and  _362
REMARK  137  A    between atoms: _361  and  _364
REMARK  138  A    between atoms: _364  and  _365
REMARK  139  A    between atoms: _375  and  _377
REMARK  140  A    between atoms: _377  and  _378
REMARK  141  A    between atoms: _377  and  _380
REMARK  142  A    between atoms: _380  and  _381
REMARK  143  A    between atoms: _381  and  _382
REMARK  144  A    between atoms: _385  and  _387
REMARK  145  A    between atoms: _387  and  _388
REMARK  146  A    between atoms: _387  and  _390
REMARK  147  A    between atoms: _390  and  _391
REMARK  148  A    between atoms: _391  and  _392
REMARK  149  A    between atoms: _392  and  _393
REMARK  150  A    between atoms: _393  and  _394
REMARK  151  A    between atoms: _398  and  _400
REMARK  152  A    between atoms: _400  and  _401
REMARK  153  A    between atoms: _400  and  _403
REMARK  154  A    between atoms: _403  and  _404
REMARK                            x       y       z     vdW  Elec       q    Type
REMARK                         _______ _______ _______ _____ _____    ______ ____
ROOT
ATOM      1  O   HOH     1       7.426   8.147   9.538  0.00  0.00    +0.000 OA
ENDROOT
TORSDOF 0
REMARK  Name = ../refined-set-2016/2j7h/2j7h_pocket.pdb
REMARK  154 active torsions:
REMARK  status: ('A' for Active; 'I' for Inactive)
REMARK    1  A    between atoms: _1  and  _3
REMARK    2  A    between atoms: _3  and  _4
REMARK    3  A    between atoms: _7  and  _9
REMARK    4  A    between atoms: _9  and  _10
REMARK    5  A    between atoms: _9  and  _12
REMARK    6  A    between atoms: _12  and  _13
REMARK    7  A    between atoms: _16  and  _18
REMARK    8  A    between atoms: _18  and  _19
REMARK    9  A    between atoms: _22  and  _24
REMARK   10  A    between atoms: _24  and  _25
REMARK   11  A    between atoms: _24  and  _27
REMARK   12  A    between atoms: _27  and  _28
REMARK   13  A    between atoms: _30  and  _32
REMARK   14  A    between atoms: _32  and  _33
REMARK   15  A    between atoms: _32  and  _35
REMARK   16  A    between atoms: _35  and  _36
REMARK   17  A    between atoms: _41  and  _42
REMARK   18  A    between atoms: _44  and  _46
REMARK   19  A    between atoms: _46  and  _47
REMARK   20  A    between atoms: _46  and  _49
REMARK   21  A    between atoms: _49  and  _50
REMARK   22  A    between atoms: _50  and  _51
REMARK   23  A    between atoms: _56  and  _58
REMARK   24  A    between atoms: _58  and  _59
REMARK   25  A    between atoms: _58  and  _61
REMARK   26  A    between atoms: _61  and  _62
REMARK   27  A    between atoms: _62  and  _63
REMARK   28  A    between atoms: _63  and  _64
REMARK   29  A    between atoms: _73  and  _75
REMARK   30  A    between atoms: _75  and  _76
REMARK   31  A    between atoms: _75  and  _78
REMARK   32  A    between atoms: _78  and  _79
REMARK   33  A    between atoms: _82  and  _84
REMARK   34  A    between atoms: _84  and  _85
REMARK   35  A    between atoms: _84  and  _87
REMARK   36  A    between atoms: _87  and  _88
REMARK   37  A    between atoms: _93  and  _95
REMARK   38  A    between atoms: _95  and  _96
REMARK   39  A    between atoms: _95  and  _98
REMARK   40  A    between atoms: _98  and  _99
REMARK   41  A    between atoms: _109  and  _111
REMARK   42  A    between atoms: _111  and  _112
REMARK   43  A    between atoms: _111  and  _114
REMARK   44  A    between atoms: _114  and  _115
REMARK   45  A    between atoms: _120  and  _122
REMARK   46  A    between atoms: _122  and  _123
REMARK   47  A    between atoms: _122  and  _125
REMARK   48  A    between atoms: _125  and  _126
REMARK   49  A    between atoms: _126  and  _127
REMARK   50  A    between atoms: _130  and  _132
REMARK   51  A    between atoms: _132  and  _133
REMARK   52  A    between atoms: _132  and  _135
REMARK   53  A    between atoms: _138  and  _140
REMARK   54  A    between atoms: _140  and  _141
REMARK   55  A    between atoms: _140  and  _143
REMARK   56  A    between atoms: _143  and  _144
REMARK   57  A    between atoms: _149  and  _151
REMARK   58  A    between atoms: _151  and  _152
REMARK   59  A    between atoms: _151  and  _154
REMARK   60  A    between atoms: _157  and  _159
REMARK   61  A    between atoms: _159  and  _160
REMARK   62  A    between atoms: _159  and  _162
REMARK   63  A    between atoms: _162  and  _163
REMARK   64  A    between atoms: _169  and  _171
REMARK   65  A    between atoms: _171  and  _172
REMARK   66  A    between atoms: _171  and  _174
REMARK   67  A    between atoms: _174  and  _175
REMARK   68  A    between atoms: _180  and  _182
REMARK   69  A    between atoms: _182  and  _183
REMARK   70  A    between atoms: _182  and  _185
REMARK   71  A    between atoms: _185  and  _186
REMARK   72  A    between atoms: _191  and  _193
REMARK   73  A    between atoms: _193  and  _194
REMARK   74  A    between atoms: _193  and  _196
REMARK   75  A    between atoms: _196  and  _197
REMARK   76  A    between atoms: _202  and  _204
REMARK   77  A    between atoms: _204  and  _205
REMARK   78  A    between atoms: _204  and  _207
REMARK   79  A    between atoms: _207  and  _208
REMARK   80  A    between atoms: _213  and  _214
REMARK   81  A    between atoms: _216  and  _218
REMARK   82  A    between atoms: _218  and  _219
REMARK   83  A    between atoms: _218  and  _221
REMARK   84  A    between atoms: _221  and  _222
REMARK   85  A    between atoms: _227  and  _228
REMARK   86  A    between atoms: _230  and  _232
REMARK   87  A    between atoms: _232  and  _233
REMARK   88  A    between atoms: _232  and  _235
REMARK   89  A    between atoms: _235  and  _236
REMARK   90  A    between atoms: _236  and  _237
REMARK   91  A    between atoms: _239  and  _241
REMARK   92  A    between atoms: _241  and  _242
REMARK   93  A    between atoms: _241  and  _244
REMARK   94  A    between atoms: _244  and  _245
REMARK   95  A    between atoms: _255  and  _257
REMARK   96  A    between atoms: _257  and  _258
REMARK   97  A    between atoms: _257  and  _260
REMARK   98  A    between atoms: _260  and  _261
REMARK   99  A    between atoms: _264  and  _266
REMARK  100  A    between atoms: _266  and  _267
REMARK  101  A    between atoms: _266  and  _269
REMARK  102  A    between atoms: _269  and  _270
REMARK  103  A    between atoms: _270  and  _271
REMARK  104  A    between atoms: _274  and  _276
REMARK  105  A    between atoms: _276  and  _277
REMARK  106  A    between atoms: _276  and  _279
REMARK  107  A    between atoms: _279  and  _280
REMARK  108  A    between atoms: _285  and  _287
REMARK  109  A    between atoms: _287  and  _288
REMARK  110  A    between atoms: _290  and  _292
REMARK  111  A    between atoms: _292  and  _293
REMARK  112  A    between atoms: _296  and  _298
REMARK  113  A    between atoms: _298  and  _299
REMARK  114  A    between atoms: _302  and  _304
REMARK  115  A    between atoms: _304  and  _305
REMARK  116  A    between atoms: _304  and  _307
REMARK  117  A    between atoms: _307  and  _308
REMARK  118  A    between atoms: _318  and  _320
REMARK  119  A    between atoms: _320  and  _321
REMARK  120  A    between atoms: _320  and  _323
REMARK  121  A    between atoms: _323  and  _324
REMARK  122  A    between atoms: _326  and  _328
REMARK  123  A    between atoms: _328  and  _329
REMARK  124  A    between atoms: _328  and  _331
REMARK  125  A    between atoms: _331  and  _332
REMARK  126  A    between atoms: _337  and  _339
REMARK  127  A    between atoms: _339  and  _340
REMARK  128  A    between atoms: _339  and  _342
REMARK  129  A    between atoms: _342  and  _343
REMARK  130  A    between atoms: _349  and  _351
REMARK  131  A    between atoms: _351  and  _352
REMARK  132  A    between atoms: _351  and  _354
REMARK  133  A    between atoms: _354  and  _355
REMARK  134  A    between atoms: _355  and  _356
REMARK  135  A    between atoms: _359  and  _361
REMARK  136  A    between atoms: _361  and  _362
REMARK  137  A    between atoms: _361  and  _364
REMARK  138  A    between atoms: _364  and  _365
REMARK  139  A    between atoms: _375  and  _377
REMARK  140  A    between atoms: _377  and  _378
REMARK  141  A    between atoms: _377  and  _380
REMARK  142  A    between atoms: _380  and  _381
REMARK  143  A    between atoms: _381  and  _382
REMARK  144  A    between atoms: _385  and  _387
REMARK  145  A    between atoms: _387  and  _388
REMARK  146  A    between atoms: _387  and  _390
REMARK  147  A    between atoms: _390  and  _391
REMARK  148  A    between atoms: _391  and  _392
REMARK  149  A    between atoms: _392  and  _393
REMARK  150  A    between atoms: _393  and  _394
REMARK  151  A    between atoms: _398  and  _400
REMARK  152  A    between atoms: _400  and  _401
REMARK  153  A    between atoms: _400  and  _403
REMARK  154  A    between atoms: _403  and  _404
REMARK                            x       y       z     vdW  Elec       q    Type
REMARK                         _______ _______ _______ _____ _____    ______ ____
ROOT
ATOM      1  O   HOH     1       1.872   3.774   6.364  0.00  0.00    +0.000 OA
ENDROOT
TORSDOF 0
REMARK  Name = ../refined-set-2016/2j7h/2j7h_pocket.pdb
REMARK  154 active torsions:
REMARK  status: ('A' for Active; 'I' for Inactive)
REMARK    1  A    between atoms: _1  and  _3
REMARK    2  A    between atoms: _3  and  _4
REMARK    3  A    between atoms: _7  and  _9
REMARK    4  A    between atoms: _9  and  _10
REMARK    5  A    between atoms: _9  and  _12
REMARK    6  A    between atoms: _12  and  _13
REMARK    7  A    between atoms: _16  and  _18
REMARK    8  A    between atoms: _18  and  _19
REMARK    9  A    between atoms: _22  and  _24
REMARK   10  A    between atoms: _24  and  _25
REMARK   11  A    between atoms: _24  and  _27
REMARK   12  A    between atoms: _27  and  _28
REMARK   13  A    between atoms: _30  and  _32
REMARK   14  A    between atoms: _32  and  _33
REMARK   15  A    between atoms: _32  and  _35
REMARK   16  A    between atoms: _35  and  _36
REMARK   17  A    between atoms: _41  and  _42
REMARK   18  A    between atoms: _44  and  _46
REMARK   19  A    between atoms: _46  and  _47
REMARK   20  A    between atoms: _46  and  _49
REMARK   21  A    between atoms: _49  and  _50
REMARK   22  A    between atoms: _50  and  _51
REMARK   23  A    between atoms: _56  and  _58
REMARK   24  A    between atoms: _58  and  _59
REMARK   25  A    between atoms: _58  and  _61
REMARK   26  A    between atoms: _61  and  _62
REMARK   27  A    between atoms: _62  and  _63
REMARK   28  A    between atoms: _63  and  _64
REMARK   29  A    between atoms: _73  and  _75
REMARK   30  A    between atoms: _75  and  _76
REMARK   31  A    between atoms: _75  and  _78
REMARK   32  A    between atoms: _78  and  _79
REMARK   33  A    between atoms: _82  and  _84
REMARK   34  A    between atoms: _84  and  _85
REMARK   35  A    between atoms: _84  and  _87
REMARK   36  A    between atoms: _87  and  _88
REMARK   37  A    between atoms: _93  and  _95
REMARK   38  A    between atoms: _95  and  _96
REMARK   39  A    between atoms: _95  and  _98
REMARK   40  A    between atoms: _98  and  _99
REMARK   41  A    between atoms: _109  and  _111
REMARK   42  A    between atoms: _111  and  _112
REMARK   43  A    between atoms: _111  and  _114
REMARK   44  A    between atoms: _114  and  _115
REMARK   45  A    between atoms: _120  and  _122
REMARK   46  A    between atoms: _122  and  _123
REMARK   47  A    between atoms: _122  and  _125
REMARK   48  A    between atoms: _125  and  _126
REMARK   49  A    between atoms: _126  and  _127
REMARK   50  A    between atoms: _130  and  _132
REMARK   51  A    between atoms: _132  and  _133
REMARK   52  A    between atoms: _132  and  _135
REMARK   53  A    between atoms: _138  and  _140
REMARK   54  A    between atoms: _140  and  _141
REMARK   55  A    between atoms: _140  and  _143
REMARK   56  A    between atoms: _143  and  _144
REMARK   57  A    between atoms: _149  and  _151
REMARK   58  A    between atoms: _151  and  _152
REMARK   59  A    between atoms: _151  and  _154
REMARK   60  A    between atoms: _157  and  _159
REMARK   61  A    between atoms: _159  and  _160
REMARK   62  A    between atoms: _159  and  _162
REMARK   63  A    between atoms: _162  and  _163
REMARK   64  A    between atoms: _169  and  _171
REMARK   65  A    between atoms: _171  and  _172
REMARK   66  A    between atoms: _171  and  _174
REMARK   67  A    between atoms: _174  and  _175
REMARK   68  A    between atoms: _180  and  _182
REMARK   69  A    between atoms: _182  and  _183
REMARK   70  A    between atoms: _182  and  _185
REMARK   71  A    between atoms: _185  and  _186
REMARK   72  A    between atoms: _191  and  _193
REMARK   73  A    between atoms: _193  and  _194
REMARK   74  A    between atoms: _193  and  _196
REMARK   75  A    between atoms: _196  and  _197
REMARK   76  A    between atoms: _202  and  _204
REMARK   77  A    between atoms: _204  and  _205
REMARK   78  A    between atoms: _204  and  _207
REMARK   79  A    between atoms: _207  and  _208
REMARK   80  A    between atoms: _213  and  _214
REMARK   81  A    between atoms: _216  and  _218
REMARK   82  A    between atoms: _218  and  _219
REMARK   83  A    between atoms: _218  and  _221
REMARK   84  A    between atoms: _221  and  _222
REMARK   85  A    between atoms: _227  and  _228
REMARK   86  A    between atoms: _230  and  _232
REMARK   87  A    between atoms: _232  and  _233
REMARK   88  A    between atoms: _232  and  _235
REMARK   89  A    between atoms: _235  and  _236
REMARK   90  A    between atoms: _236  and  _237
REMARK   91  A    between atoms: _239  and  _241
REMARK   92  A    between atoms: _241  and  _242
REMARK   93  A    between atoms: _241  and  _244
REMARK   94  A    between atoms: _244  and  _245
REMARK   95  A    between atoms: _255  and  _257
REMARK   96  A    between atoms: _257  and  _258
REMARK   97  A    between atoms: _257  and  _260
REMARK   98  A    between atoms: _260  and  _261
REMARK   99  A    between atoms: _264  and  _266
REMARK  100  A    between atoms: _266  and  _267
REMARK  101  A    between atoms: _266  and  _269
REMARK  102  A    between atoms: _269  and  _270
REMARK  103  A    between atoms: _270  and  _271
REMARK  104  A    between atoms: _274  and  _276
REMARK  105  A    between atoms: _276  and  _277
REMARK  106  A    between atoms: _276  and  _279
REMARK  107  A    between atoms: _279  and  _280
REMARK  108  A    between atoms: _285  and  _287
REMARK  109  A    between atoms: _287  and  _288
REMARK  110  A    between atoms: _290  and  _292
REMARK  111  A    between atoms: _292  and  _293
REMARK  112  A    between atoms: _296  and  _298
REMARK  113  A    between atoms: _298  and  _299
REMARK  114  A    between atoms: _302  and  _304
REMARK  115  A    between atoms: _304  and  _305
REMARK  116  A    between atoms: _304  and  _307
REMARK  117  A    between atoms: _307  and  _308
REMARK  118  A    between atoms: _318  and  _320
REMARK  119  A    between atoms: _320  and  _321
REMARK  120  A    between atoms: _320  and  _323
REMARK  121  A    between atoms: _323  and  _324
REMARK  122  A    between atoms: _326  and  _328
REMARK  123  A    between atoms: _328  and  _329
REMARK  124  A    between atoms: _328  and  _331
REMARK  125  A    between atoms: _331  and  _332
REMARK  126  A    between atoms: _337  and  _339
REMARK  127  A    between atoms: _339  and  _340
REMARK  128  A    between atoms: _339  and  _342
REMARK  129  A    between atoms: _342  and  _343
REMARK  130  A    between atoms: _349  and  _351
REMARK  131  A    between atoms: _351  and  _352
REMARK  132  A    between atoms: _351  and  _354
REMARK  133  A    between atoms: _354  and  _355
REMARK  134  A    between atoms: _355  and  _356
REMARK  135  A    between atoms: _359  and  _361
REMARK  136  A    between atoms: _361  and  _362
REMARK  137  A    between atoms: _361  and  _364
REMARK  138  A    between atoms: _364  and  _365
REMARK  139  A    between atoms: _375  and  _377
REMARK  140  A    between atoms: _377  and  _378
REMARK  141  A    between atoms: _377  and  _380
REMARK  142  A    between atoms: _380  and  _381
REMARK  143  A    between atoms: _381  and  _382
REMARK  144  A    between atoms: _385  and  _387
REMARK  145  A    between atoms: _387  and  _388
REMARK  146  A    between atoms: _387  and  _390
REMARK  147  A    between atoms: _390  and  _391
REMARK  148  A    between atoms: _391  and  _392
REMARK  149  A    between atoms: _392  and  _393
REMARK  150  A    between atoms: _393  and  _394
REMARK  151  A    between atoms: _398  and  _400
REMARK  152  A    between atoms: _400  and  _401
REMARK  153  A    between atoms: _400  and  _403
REMARK  154  A    between atoms: _403  and  _404
REMARK                            x       y       z     vdW  Elec       q    Type
REMARK                         _______ _______ _______ _____ _____    ______ ____
ROOT
ATOM      1  O   HOH     1      -2.664   9.803  16.160  0.00  0.00    +0.000 OA
ENDROOT
TORSDOF 0
REMARK  Name = ../refined-set-2016/2j7h/2j7h_pocket.pdb
REMARK  154 active torsions:
REMARK  status: ('A' for Active; 'I' for Inactive)
REMARK    1  A    between atoms: _1  and  _3
REMARK    2  A    between atoms: _3  and  _4
REMARK    3  A    between atoms: _7  and  _9
REMARK    4  A    between atoms: _9  and  _10
REMARK    5  A    between atoms: _9  and  _12
REMARK    6  A    between atoms: _12  and  _13
REMARK    7  A    between atoms: _16  and  _18
REMARK    8  A    between atoms: _18  and  _19
REMARK    9  A    between atoms: _22  and  _24
REMARK   10  A    between atoms: _24  and  _25
REMARK   11  A    between atoms: _24  and  _27
REMARK   12  A    between atoms: _27  and  _28
REMARK   13  A    between atoms: _30  and  _32
REMARK   14  A    between atoms: _32  and  _33
REMARK   15  A    between atoms: _32  and  _35
REMARK   16  A    between atoms: _35  and  _36
REMARK   17  A    between atoms: _41  and  _42
REMARK   18  A    between atoms: _44  and  _46
REMARK   19  A    between atoms: _46  and  _47
REMARK   20  A    between atoms: _46  and  _49
REMARK   21  A    between atoms: _49  and  _50
REMARK   22  A    between atoms: _50  and  _51
REMARK   23  A    between atoms: _56  and  _58
REMARK   24  A    between atoms: _58  and  _59
REMARK   25  A    between atoms: _58  and  _61
REMARK   26  A    between atoms: _61  and  _62
REMARK   27  A    between atoms: _62  and  _63
REMARK   28  A    between atoms: _63  and  _64
REMARK   29  A    between atoms: _73  and  _75
REMARK   30  A    between atoms: _75  and  _76
REMARK   31  A    between atoms: _75  and  _78
REMARK   32  A    between atoms: _78  and  _79
REMARK   33  A    between atoms: _82  and  _84
REMARK   34  A    between atoms: _84  and  _85
REMARK   35  A    between atoms: _84  and  _87
REMARK   36  A    between atoms: _87  and  _88
REMARK   37  A    between atoms: _93  and  _95
REMARK   38  A    between atoms: _95  and  _96
REMARK   39  A    between atoms: _95  and  _98
REMARK   40  A    between atoms: _98  and  _99
REMARK   41  A    between atoms: _109  and  _111
REMARK   42  A    between atoms: _111  and  _112
REMARK   43  A    between atoms: _111  and  _114
REMARK   44  A    between atoms: _114  and  _115
REMARK   45  A    between atoms: _120  and  _122
REMARK   46  A    between atoms: _122  and  _123
REMARK   47  A    between atoms: _122  and  _125
REMARK   48  A    between atoms: _125  and  _126
REMARK   49  A    between atoms: _126  and  _127
REMARK   50  A    between atoms: _130  and  _132
REMARK   51  A    between atoms: _132  and  _133
REMARK   52  A    between atoms: _132  and  _135
REMARK   53  A    between atoms: _138  and  _140
REMARK   54  A    between atoms: _140  and  _141
REMARK   55  A    between atoms: _140  and  _143
REMARK   56  A    between atoms: _143  and  _144
REMARK   57  A    between atoms: _149  and  _151
REMARK   58  A    between atoms: _151  and  _152
REMARK   59  A    between atoms: _151  and  _154
REMARK   60  A    between atoms: _157  and  _159
REMARK   61  A    between atoms: _159  and  _160
REMARK   62  A    between atoms: _159  and  _162
REMARK   63  A    between atoms: _162  and  _163
REMARK   64  A    between atoms: _169  and  _171
REMARK   65  A    between atoms: _171  and  _172
REMARK   66  A    between atoms: _171  and  _174
REMARK   67  A    between atoms: _174  and  _175
REMARK   68  A    between atoms: _180  and  _182
REMARK   69  A    between atoms: _182  and  _183
REMARK   70  A    between atoms: _182  and  _185
REMARK   71  A    between atoms: _185  and  _186
REMARK   72  A    between atoms: _191  and  _193
REMARK   73  A    between atoms: _193  and  _194
REMARK   74  A    between atoms: _193  and  _196
REMARK   75  A    between atoms: _196  and  _197
REMARK   76  A    between atoms: _202  and  _204
REMARK   77  A    between atoms: _204  and  _205
REMARK   78  A    between atoms: _204  and  _207
REMARK   79  A    between atoms: _207  and  _208
REMARK   80  A    between atoms: _213  and  _214
REMARK   81  A    between atoms: _216  and  _218
REMARK   82  A    between atoms: _218  and  _219
REMARK   83  A    between atoms: _218  and  _221
REMARK   84  A    between atoms: _221  and  _222
REMARK   85  A    between atoms: _227  and  _228
REMARK   86  A    between atoms: _230  and  _232
REMARK   87  A    between atoms: _232  and  _233
REMARK   88  A    between atoms: _232  and  _235
REMARK   89  A    between atoms: _235  and  _236
REMARK   90  A    between atoms: _236  and  _237
REMARK   91  A    between atoms: _239  and  _241
REMARK   92  A    between atoms: _241  and  _242
REMARK   93  A    between atoms: _241  and  _244
REMARK   94  A    between atoms: _244  and  _245
REMARK   95  A    between atoms: _255  and  _257
REMARK   96  A    between atoms: _257  and  _258
REMARK   97  A    between atoms: _257  and  _260
REMARK   98  A    between atoms: _260  and  _261
REMARK   99  A    between atoms: _264  and  _266
REMARK  100  A    between atoms: _266  and  _267
REMARK  101  A    between atoms: _266  and  _269
REMARK  102  A    between atoms: _269  and  _270
REMARK  103  A    between atoms: _270  and  _271
REMARK  104  A    between atoms: _274  and  _276
REMARK  105  A    between atoms: _276  and  _277
REMARK  106  A    between atoms: _276  and  _279
REMARK  107  A    between atoms: _279  and  _280
REMARK  108  A    between atoms: _285  and  _287
REMARK  109  A    between atoms: _287  and  _288
REMARK  110  A    between atoms: _290  and  _292
REMARK  111  A    between atoms: _292  and  _293
REMARK  112  A    between atoms: _296  and  _298
REMARK  113  A    between atoms: _298  and  _299
REMARK  114  A    between atoms: _302  and  _304
REMARK  115  A    between atoms: _304  and  _305
REMARK  116  A    between atoms: _304  and  _307
REMARK  117  A    between atoms: _307  and  _308
REMARK  118  A    between atoms: _318  and  _320
REMARK  119  A    between atoms: _320  and  _321
REMARK  120  A    between atoms: _320  and  _323
REMARK  121  A    between atoms: _323  and  _324
REMARK  122  A    between atoms: _326  and  _328
REMARK  123  A    between atoms: _328  and  _329
REMARK  124  A    between atoms: _328  and  _331
REMARK  125  A    between atoms: _331  and  _332
REMARK  126  A    between atoms: _337  and  _339
REMARK  127  A    between atoms: _339  and  _340
REMARK  128  A    between atoms: _339  and  _342
REMARK  129  A    between atoms: _342  and  _343
REMARK  130  A    between atoms: _349  and  _351
REMARK  131  A    between atoms: _351  and  _352
REMARK  132  A    between atoms: _351  and  _354
REMARK  133  A    between atoms: _354  and  _355
REMARK  134  A    between atoms: _355  and  _356
REMARK  135  A    between atoms: _359  and  _361
REMARK  136  A    between atoms: _361  and  _362
REMARK  137  A    between atoms: _361  and  _364
REMARK  138  A    between atoms: _364  and  _365
REMARK  139  A    between atoms: _375  and  _377
REMARK  140  A    between atoms: _377  and  _378
REMARK  141  A    between atoms: _377  and  _380
REMARK  142  A    between atoms: _380  and  _381
REMARK  143  A    between atoms: _381  and  _382
REMARK  144  A    between atoms: _385  and  _387
REMARK  145  A    between atoms: _387  and  _388
REMARK  146  A    between atoms: _387  and  _390
REMARK  147  A    between atoms: _390  and  _391
REMARK  148  A    between atoms: _391  and  _392
REMARK  149  A    between atoms: _392  and  _393
REMARK  150  A    between atoms: _393  and  _394
REMARK  151  A    between atoms: _398  and  _400
REMARK  152  A    between atoms: _400  and  _401
REMARK  153  A    between atoms: _400  and  _403
REMARK  154  A    between atoms: _403  and  _404
REMARK                            x       y       z     vdW  Elec       q    Type
REMARK                         _______ _______ _______ _____ _____    ______ ____
ROOT
ATOM      1  O   HOH     1      -4.303   4.753  15.335  0.00  0.00    +0.000 OA
ENDROOT
TORSDOF 0
REMARK  Name = ../refined-set-2016/2j7h/2j7h_pocket.pdb
REMARK  154 active torsions:
REMARK  status: ('A' for Active; 'I' for Inactive)
REMARK    1  A    between atoms: _1  and  _3
REMARK    2  A    between atoms: _3  and  _4
REMARK    3  A    between atoms: _7  and  _9
REMARK    4  A    between atoms: _9  and  _10
REMARK    5  A    between atoms: _9  and  _12
REMARK    6  A    between atoms: _12  and  _13
REMARK    7  A    between atoms: _16  and  _18
REMARK    8  A    between atoms: _18  and  _19
REMARK    9  A    between atoms: _22  and  _24
REMARK   10  A    between atoms: _24  and  _25
REMARK   11  A    between atoms: _24  and  _27
REMARK   12  A    between atoms: _27  and  _28
REMARK   13  A    between atoms: _30  and  _32
REMARK   14  A    between atoms: _32  and  _33
REMARK   15  A    between atoms: _32  and  _35
REMARK   16  A    between atoms: _35  and  _36
REMARK   17  A    between atoms: _41  and  _42
REMARK   18  A    between atoms: _44  and  _46
REMARK   19  A    between atoms: _46  and  _47
REMARK   20  A    between atoms: _46  and  _49
REMARK   21  A    between atoms: _49  and  _50
REMARK   22  A    between atoms: _50  and  _51
REMARK   23  A    between atoms: _56  and  _58
REMARK   24  A    between atoms: _58  and  _59
REMARK   25  A    between atoms: _58  and  _61
REMARK   26  A    between atoms: _61  and  _62
REMARK   27  A    between atoms: _62  and  _63
REMARK   28  A    between atoms: _63  and  _64
REMARK   29  A    between atoms: _73  and  _75
REMARK   30  A    between atoms: _75  and  _76
REMARK   31  A    between atoms: _75  and  _78
REMARK   32  A    between atoms: _78  and  _79
REMARK   33  A    between atoms: _82  and  _84
REMARK   34  A    between atoms: _84  and  _85
REMARK   35  A    between atoms: _84  and  _87
REMARK   36  A    between atoms: _87  and  _88
REMARK   37  A    between atoms: _93  and  _95
REMARK   38  A    between atoms: _95  and  _96
REMARK   39  A    between atoms: _95  and  _98
REMARK   40  A    between atoms: _98  and  _99
REMARK   41  A    between atoms: _109  and  _111
REMARK   42  A    between atoms: _111  and  _112
REMARK   43  A    between atoms: _111  and  _114
REMARK   44  A    between atoms: _114  and  _115
REMARK   45  A    between atoms: _120  and  _122
REMARK   46  A    between atoms: _122  and  _123
REMARK   47  A    between atoms: _122  and  _125
REMARK   48  A    between atoms: _125  and  _126
REMARK   49  A    between atoms: _126  and  _127
REMARK   50  A    between atoms: _130  and  _132
REMARK   51  A    between atoms: _132  and  _133
REMARK   52  A    between atoms: _132  and  _135
REMARK   53  A    between atoms: _138  and  _140
REMARK   54  A    between atoms: _140  and  _141
REMARK   55  A    between atoms: _140  and  _143
REMARK   56  A    between atoms: _143  and  _144
REMARK   57  A    between atoms: _149  and  _151
REMARK   58  A    between atoms: _151  and  _152
REMARK   59  A    between atoms: _151  and  _154
REMARK   60  A    between atoms: _157  and  _159
REMARK   61  A    between atoms: _159  and  _160
REMARK   62  A    between atoms: _159  and  _162
REMARK   63  A    between atoms: _162  and  _163
REMARK   64  A    between atoms: _169  and  _171
REMARK   65  A    between atoms: _171  and  _172
REMARK   66  A    between atoms: _171  and  _174
REMARK   67  A    between atoms: _174  and  _175
REMARK   68  A    between atoms: _180  and  _182
REMARK   69  A    between atoms: _182  and  _183
REMARK   70  A    between atoms: _182  and  _185
REMARK   71  A    between atoms: _185  and  _186
REMARK   72  A    between atoms: _191  and  _193
REMARK   73  A    between atoms: _193  and  _194
REMARK   74  A    between atoms: _193  and  _196
REMARK   75  A    between atoms: _196  and  _197
REMARK   76  A    between atoms: _202  and  _204
REMARK   77  A    between atoms: _204  and  _205
REMARK   78  A    between atoms: _204  and  _207
REMARK   79  A    between atoms: _207  and  _208
REMARK   80  A    between atoms: _213  and  _214
REMARK   81  A    between atoms: _216  and  _218
REMARK   82  A    between atoms: _218  and  _219
REMARK   83  A    between atoms: _218  and  _221
REMARK   84  A    between atoms: _221  and  _222
REMARK   85  A    between atoms: _227  and  _228
REMARK   86  A    between atoms: _230  and  _232
REMARK   87  A    between atoms: _232  and  _233
REMARK   88  A    between atoms: _232  and  _235
REMARK   89  A    between atoms: _235  and  _236
REMARK   90  A    between atoms: _236  and  _237
REMARK   91  A    between atoms: _239  and  _241
REMARK   92  A    between atoms: _241  and  _242
REMARK   93  A    between atoms: _241  and  _244
REMARK   94  A    between atoms: _244  and  _245
REMARK   95  A    between atoms: _255  and  _257
REMARK   96  A    between atoms: _257  and  _258
REMARK   97  A    between atoms: _257  and  _260
REMARK   98  A    between atoms: _260  and  _261
REMARK   99  A    between atoms: _264  and  _266
REMARK  100  A    between atoms: _266  and  _267
REMARK  101  A    between atoms: _266  and  _269
REMARK  102  A    between atoms: _269  and  _270
REMARK  103  A    between atoms: _270  and  _271
REMARK  104  A    between atoms: _274  and  _276
REMARK  105  A    between atoms: _276  and  _277
REMARK  106  A    between atoms: _276  and  _279
REMARK  107  A    between atoms: _279  and  _280
REMARK  108  A    between atoms: _285  and  _287
REMARK  109  A    between atoms: _287  and  _288
REMARK  110  A    between atoms: _290  and  _292
REMARK  111  A    between atoms: _292  and  _293
REMARK  112  A    between atoms: _296  and  _298
REMARK  113  A    between atoms: _298  and  _299
REMARK  114  A    between atoms: _302  and  _304
REMARK  115  A    between atoms: _304  and  _305
REMARK  116  A    between atoms: _304  and  _307
REMARK  117  A    between atoms: _307  and  _308
REMARK  118  A    between atoms: _318  and  _320
REMARK  119  A    between atoms: _320  and  _321
REMARK  120  A    between atoms: _320  and  _323
REMARK  121  A    between atoms: _323  and  _324
REMARK  122  A    between atoms: _326  and  _328
REMARK  123  A    between atoms: _328  and  _329
REMARK  124  A    between atoms: _328  and  _331
REMARK  125  A    between atoms: _331  and  _332
REMARK  126  A    between atoms: _337  and  _339
REMARK  127  A    between atoms: _339  and  _340
REMARK  128  A    between atoms: _339  and  _342
REMARK  129  A    between atoms: _342  and  _343
REMARK  130  A    between atoms: _349  and  _351
REMARK  131  A    between atoms: _351  and  _352
REMARK  132  A    between atoms: _351  and  _354
REMARK  133  A    between atoms: _354  and  _355
REMARK  134  A    between atoms: _355  and  _356
REMARK  135  A    between atoms: _359  and  _361
REMARK  136  A    between atoms: _361  and  _362
REMARK  137  A    between atoms: _361  and  _364
REMARK  138  A    between atoms: _364  and  _365
REMARK  139  A    between atoms: _375  and  _377
REMARK  140  A    between atoms: _377  and  _378
REMARK  141  A    between atoms: _377  and  _380
REMARK  142  A    between atoms: _380  and  _381
REMARK  143  A    between atoms: _381  and  _382
REMARK  144  A    between atoms: _385  and  _387
REMARK  145  A    between atoms: _387  and  _388
REMARK  146  A    between atoms: _387  and  _390
REMARK  147  A    between atoms: _390  and  _391
REMARK  148  A    between atoms: _391  and  _392
REMARK  149  A    between atoms: _392  and  _393
REMARK  150  A    between atoms: _393  and  _394
REMARK  151  A    between atoms: _398  and  _400
REMARK  152  A    between atoms: _400  and  _401
REMARK  153  A    between atoms: _400  and  _403
REMARK  154  A    between atoms: _403  and  _404
REMARK                            x       y       z     vdW  Elec       q    Type
REMARK                         _______ _______ _______ _____ _____    ______ ____
ROOT
ATOM      1  O   HOH     1      -9.012   6.049   9.408  0.00  0.00    +0.000 OA
ENDROOT
TORSDOF 0
REMARK  Name = ../refined-set-2016/2j7h/2j7h_pocket.pdb
REMARK  154 active torsions:
REMARK  status: ('A' for Active; 'I' for Inactive)
REMARK    1  A    between atoms: _1  and  _3
REMARK    2  A    between atoms: _3  and  _4
REMARK    3  A    between atoms: _7  and  _9
REMARK    4  A    between atoms: _9  and  _10
REMARK    5  A    between atoms: _9  and  _12
REMARK    6  A    between atoms: _12  and  _13
REMARK    7  A    between atoms: _16  and  _18
REMARK    8  A    between atoms: _18  and  _19
REMARK    9  A    between atoms: _22  and  _24
REMARK   10  A    between atoms: _24  and  _25
REMARK   11  A    between atoms: _24  and  _27
REMARK   12  A    between atoms: _27  and  _28
REMARK   13  A    between atoms: _30  and  _32
REMARK   14  A    between atoms: _32  and  _33
REMARK   15  A    between atoms: _32  and  _35
REMARK   16  A    between atoms: _35  and  _36
REMARK   17  A    between atoms: _41  and  _42
REMARK   18  A    between atoms: _44  and  _46
REMARK   19  A    between atoms: _46  and  _47
REMARK   20  A    between atoms: _46  and  _49
REMARK   21  A    between atoms: _49  and  _50
REMARK   22  A    between atoms: _50  and  _51
REMARK   23  A    between atoms: _56  and  _58
REMARK   24  A    between atoms: _58  and  _59
REMARK   25  A    between atoms: _58  and  _61
REMARK   26  A    between atoms: _61  and  _62
REMARK   27  A    between atoms: _62  and  _63
REMARK   28  A    between atoms: _63  and  _64
REMARK   29  A    between atoms: _73  and  _75
REMARK   30  A    between atoms: _75  and  _76
REMARK   31  A    between atoms: _75  and  _78
REMARK   32  A    between atoms: _78  and  _79
REMARK   33  A    between atoms: _82  and  _84
REMARK   34  A    between atoms: _84  and  _85
REMARK   35  A    between atoms: _84  and  _87
REMARK   36  A    between atoms: _87  and  _88
REMARK   37  A    between atoms: _93  and  _95
REMARK   38  A    between atoms: _95  and  _96
REMARK   39  A    between atoms: _95  and  _98
REMARK   40  A    between atoms: _98  and  _99
REMARK   41  A    between atoms: _109  and  _111
REMARK   42  A    between atoms: _111  and  _112
REMARK   43  A    between atoms: _111  and  _114
REMARK   44  A    between atoms: _114  and  _115
REMARK   45  A    between atoms: _120  and  _122
REMARK   46  A    between atoms: _122  and  _123
REMARK   47  A    between atoms: _122  and  _125
REMARK   48  A    between atoms: _125  and  _126
REMARK   49  A    between atoms: _126  and  _127
REMARK   50  A    between atoms: _130  and  _132
REMARK   51  A    between atoms: _132  and  _133
REMARK   52  A    between atoms: _132  and  _135
REMARK   53  A    between atoms: _138  and  _140
REMARK   54  A    between atoms: _140  and  _141
REMARK   55  A    between atoms: _140  and  _143
REMARK   56  A    between atoms: _143  and  _144
REMARK   57  A    between atoms: _149  and  _151
REMARK   58  A    between atoms: _151  and  _152
REMARK   59  A    between atoms: _151  and  _154
REMARK   60  A    between atoms: _157  and  _159
REMARK   61  A    between atoms: _159  and  _160
REMARK   62  A    between atoms: _159  and  _162
REMARK   63  A    between atoms: _162  and  _163
REMARK   64  A    between atoms: _169  and  _171
REMARK   65  A    between atoms: _171  and  _172
REMARK   66  A    between atoms: _171  and  _174
REMARK   67  A    between atoms: _174  and  _175
REMARK   68  A    between atoms: _180  and  _182
REMARK   69  A    between atoms: _182  and  _183
REMARK   70  A    between atoms: _182  and  _185
REMARK   71  A    between atoms: _185  and  _186
REMARK   72  A    between atoms: _191  and  _193
REMARK   73  A    between atoms: _193  and  _194
REMARK   74  A    between atoms: _193  and  _196
REMARK   75  A    between atoms: _196  and  _197
REMARK   76  A    between atoms: _202  and  _204
REMARK   77  A    between atoms: _204  and  _205
REMARK   78  A    between atoms: _204  and  _207
REMARK   79  A    between atoms: _207  and  _208
REMARK   80  A    between atoms: _213  and  _214
REMARK   81  A    between atoms: _216  and  _218
REMARK   82  A    between atoms: _218  and  _219
REMARK   83  A    between atoms: _218  and  _221
REMARK   84  A    between atoms: _221  and  _222
REMARK   85  A    between atoms: _227  and  _228
REMARK   86  A    between atoms: _230  and  _232
REMARK   87  A    between atoms: _232  and  _233
REMARK   88  A    between atoms: _232  and  _235
REMARK   89  A    between atoms: _235  and  _236
REMARK   90  A    between atoms: _236  and  _237
REMARK   91  A    between atoms: _239  and  _241
REMARK   92  A    between atoms: _241  and  _242
REMARK   93  A    between atoms: _241  and  _244
REMARK   94  A    between atoms: _244  and  _245
REMARK   95  A    between atoms: _255  and  _257
REMARK   96  A    between atoms: _257  and  _258
REMARK   97  A    between atoms: _257  and  _260
REMARK   98  A    between atoms: _260  and  _261
REMARK   99  A    between atoms: _264  and  _266
REMARK  100  A    between atoms: _266  and  _267
REMARK  101  A    between atoms: _266  and  _269
REMARK  102  A    between atoms: _269  and  _270
REMARK  103  A    between atoms: _270  and  _271
REMARK  104  A    between atoms: _274  and  _276
REMARK  105  A    between atoms: _276  and  _277
REMARK  106  A    between atoms: _276  and  _279
REMARK  107  A    between atoms: _279  and  _280
REMARK  108  A    between atoms: _285  and  _287
REMARK  109  A    between atoms: _287  and  _288
REMARK  110  A    between atoms: _290  and  _292
REMARK  111  A    between atoms: _292  and  _293
REMARK  112  A    between atoms: _296  and  _298
REMARK  113  A    between atoms: _298  and  _299
REMARK  114  A    between atoms: _302  and  _304
REMARK  115  A    between atoms: _304  and  _305
REMARK  116  A    between atoms: _304  and  _307
REMARK  117  A    between atoms: _307  and  _308
REMARK  118  A    between atoms: _318  and  _320
REMARK  119  A    between atoms: _320  and  _321
REMARK  120  A    between atoms: _320  and  _323
REMARK  121  A    between atoms: _323  and  _324
REMARK  122  A    between atoms: _326  and  _328
REMARK  123  A    between atoms: _328  and  _329
REMARK  124  A    between atoms: _328  and  _331
REMARK  125  A    between atoms: _331  and  _332
REMARK  126  A    between atoms: _337  and  _339
REMARK  127  A    between atoms: _339  and  _340
REMARK  128  A    between atoms: _339  and  _342
REMARK  129  A    between atoms: _342  and  _343
REMARK  130  A    between atoms: _349  and  _351
REMARK  131  A    between atoms: _351  and  _352
REMARK  132  A    between atoms: _351  and  _354
REMARK  133  A    between atoms: _354  and  _355
REMARK  134  A    between atoms: _355  and  _356
REMARK  135  A    between atoms: _359  and  _361
REMARK  136  A    between atoms: _361  and  _362
REMARK  137  A    between atoms: _361  and  _364
REMARK  138  A    between atoms: _364  and  _365
REMARK  139  A    between atoms: _375  and  _377
REMARK  140  A    between atoms: _377  and  _378
REMARK  141  A    between atoms: _377  and  _380
REMARK  142  A    between atoms: _380  and  _381
REMARK  143  A    between atoms: _381  and  _382
REMARK  144  A    between atoms: _385  and  _387
REMARK  145  A    between atoms: _387  and  _388
REMARK  146  A    between atoms: _387  and  _390
REMARK  147  A    between atoms: _390  and  _391
REMARK  148  A    between atoms: _391  and  _392
REMARK  149  A    between atoms: _392  and  _393
REMARK  150  A    between atoms: _393  and  _394
REMARK  151  A    between atoms: _398  and  _400
REMARK  152  A    between atoms: _400  and  _401
REMARK  153  A    between atoms: _400  and  _403
REMARK  154  A    between atoms: _403  and  _404
REMARK                            x       y       z     vdW  Elec       q    Type
REMARK                         _______ _______ _______ _____ _____    ______ ____
ROOT
ATOM      1  O   HOH     1      -9.826   7.344  11.602  0.00  0.00    +0.000 OA
ENDROOT
TORSDOF 0
REMARK  Name = ../refined-set-2016/2j7h/2j7h_pocket.pdb
REMARK  154 active torsions:
REMARK  status: ('A' for Active; 'I' for Inactive)
REMARK    1  A    between atoms: _1  and  _3
REMARK    2  A    between atoms: _3  and  _4
REMARK    3  A    between atoms: _7  and  _9
REMARK    4  A    between atoms: _9  and  _10
REMARK    5  A    between atoms: _9  and  _12
REMARK    6  A    between atoms: _12  and  _13
REMARK    7  A    between atoms: _16  and  _18
REMARK    8  A    between atoms: _18  and  _19
REMARK    9  A    between atoms: _22  and  _24
REMARK   10  A    between atoms: _24  and  _25
REMARK   11  A    between atoms: _24  and  _27
REMARK   12  A    between atoms: _27  and  _28
REMARK   13  A    between atoms: _30  and  _32
REMARK   14  A    between atoms: _32  and  _33
REMARK   15  A    between atoms: _32  and  _35
REMARK   16  A    between atoms: _35  and  _36
REMARK   17  A    between atoms: _41  and  _42
REMARK   18  A    between atoms: _44  and  _46
REMARK   19  A    between atoms: _46  and  _47
REMARK   20  A    between atoms: _46  and  _49
REMARK   21  A    between atoms: _49  and  _50
REMARK   22  A    between atoms: _50  and  _51
REMARK   23  A    between atoms: _56  and  _58
REMARK   24  A    between atoms: _58  and  _59
REMARK   25  A    between atoms: _58  and  _61
REMARK   26  A    between atoms: _61  and  _62
REMARK   27  A    between atoms: _62  and  _63
REMARK   28  A    between atoms: _63  and  _64
REMARK   29  A    between atoms: _73  and  _75
REMARK   30  A    between atoms: _75  and  _76
REMARK   31  A    between atoms: _75  and  _78
REMARK   32  A    between atoms: _78  and  _79
REMARK   33  A    between atoms: _82  and  _84
REMARK   34  A    between atoms: _84  and  _85
REMARK   35  A    between atoms: _84  and  _87
REMARK   36  A    between atoms: _87  and  _88
REMARK   37  A    between atoms: _93  and  _95
REMARK   38  A    between atoms: _95  and  _96
REMARK   39  A    between atoms: _95  and  _98
REMARK   40  A    between atoms: _98  and  _99
REMARK   41  A    between atoms: _109  and  _111
REMARK   42  A    between atoms: _111  and  _112
REMARK   43  A    between atoms: _111  and  _114
REMARK   44  A    between atoms: _114  and  _115
REMARK   45  A    between atoms: _120  and  _122
REMARK   46  A    between atoms: _122  and  _123
REMARK   47  A    between atoms: _122  and  _125
REMARK   48  A    between atoms: _125  and  _126
REMARK   49  A    between atoms: _126  and  _127
REMARK   50  A    between atoms: _130  and  _132
REMARK   51  A    between atoms: _132  and  _133
REMARK   52  A    between atoms: _132  and  _135
REMARK   53  A    between atoms: _138  and  _140
REMARK   54  A    between atoms: _140  and  _141
REMARK   55  A    between atoms: _140  and  _143
REMARK   56  A    between atoms: _143  and  _144
REMARK   57  A    between atoms: _149  and  _151
REMARK   58  A    between atoms: _151  and  _152
REMARK   59  A    between atoms: _151  and  _154
REMARK   60  A    between atoms: _157  and  _159
REMARK   61  A    between atoms: _159  and  _160
REMARK   62  A    between atoms: _159  and  _162
REMARK   63  A    between atoms: _162  and  _163
REMARK   64  A    between atoms: _169  and  _171
REMARK   65  A    between atoms: _171  and  _172
REMARK   66  A    between atoms: _171  and  _174
REMARK   67  A    between atoms: _174  and  _175
REMARK   68  A    between atoms: _180  and  _182
REMARK   69  A    between atoms: _182  and  _183
REMARK   70  A    between atoms: _182  and  _185
REMARK   71  A    between atoms: _185  and  _186
REMARK   72  A    between atoms: _191  and  _193
REMARK   73  A    between atoms: _193  and  _194
REMARK   74  A    between atoms: _193  and  _196
REMARK   75  A    between atoms: _196  and  _197
REMARK   76  A    between atoms: _202  and  _204
REMARK   77  A    between atoms: _204  and  _205
REMARK   78  A    between atoms: _204  and  _207
REMARK   79  A    between atoms: _207  and  _208
REMARK   80  A    between atoms: _213  and  _214
REMARK   81  A    between atoms: _216  and  _218
REMARK   82  A    between atoms: _218  and  _219
REMARK   83  A    between atoms: _218  and  _221
REMARK   84  A    between atoms: _221  and  _222
REMARK   85  A    between atoms: _227  and  _228
REMARK   86  A    between atoms: _230  and  _232
REMARK   87  A    between atoms: _232  and  _233
REMARK   88  A    between atoms: _232  and  _235
REMARK   89  A    between atoms: _235  and  _236
REMARK   90  A    between atoms: _236  and  _237
REMARK   91  A    between atoms: _239  and  _241
REMARK   92  A    between atoms: _241  and  _242
REMARK   93  A    between atoms: _241  and  _244
REMARK   94  A    between atoms: _244  and  _245
REMARK   95  A    between atoms: _255  and  _257
REMARK   96  A    between atoms: _257  and  _258
REMARK   97  A    between atoms: _257  and  _260
REMARK   98  A    between atoms: _260  and  _261
REMARK   99  A    between atoms: _264  and  _266
REMARK  100  A    between atoms: _266  and  _267
REMARK  101  A    between atoms: _266  and  _269
REMARK  102  A    between atoms: _269  and  _270
REMARK  103  A    between atoms: _270  and  _271
REMARK  104  A    between atoms: _274  and  _276
REMARK  105  A    between atoms: _276  and  _277
REMARK  106  A    between atoms: _276  and  _279
REMARK  107  A    between atoms: _279  and  _280
REMARK  108  A    between atoms: _285  and  _287
REMARK  109  A    between atoms: _287  and  _288
REMARK  110  A    between atoms: _290  and  _292
REMARK  111  A    between atoms: _292  and  _293
REMARK  112  A    between atoms: _296  and  _298
REMARK  113  A    between atoms: _298  and  _299
REMARK  114  A    between atoms: _302  and  _304
REMARK  115  A    between atoms: _304  and  _305
REMARK  116  A    between atoms: _304  and  _307
REMARK  117  A    between atoms: _307  and  _308
REMARK  118  A    between atoms: _318  and  _320
REMARK  119  A    between atoms: _320  and  _321
REMARK  120  A    between atoms: _320  and  _323
REMARK  121  A    between atoms: _323  and  _324
REMARK  122  A    between atoms: _326  and  _328
REMARK  123  A    between atoms: _328  and  _329
REMARK  124  A    between atoms: _328  and  _331
REMARK  125  A    between atoms: _331  and  _332
REMARK  126  A    between atoms: _337  and  _339
REMARK  127  A    between atoms: _339  and  _340
REMARK  128  A    between atoms: _339  and  _342
REMARK  129  A    between atoms: _342  and  _343
REMARK  130  A    between atoms: _349  and  _351
REMARK  131  A    between atoms: _351  and  _352
REMARK  132  A    between atoms: _351  and  _354
REMARK  133  A    between atoms: _354  and  _355
REMARK  134  A    between atoms: _355  and  _356
REMARK  135  A    between atoms: _359  and  _361
REMARK  136  A    between atoms: _361  and  _362
REMARK  137  A    between atoms: _361  and  _364
REMARK  138  A    between atoms: _364  and  _365
REMARK  139  A    between atoms: _375  and  _377
REMARK  140  A    between atoms: _377  and  _378
REMARK  141  A    between atoms: _377  and  _380
REMARK  142  A    between atoms: _380  and  _381
REMARK  143  A    between atoms: _381  and  _382
REMARK  144  A    between atoms: _385  and  _387
REMARK  145  A    between atoms: _387  and  _388
REMARK  146  A    between atoms: _387  and  _390
REMARK  147  A    between atoms: _390  and  _391
REMARK  148  A    between atoms: _391  and  _392
REMARK  149  A    between atoms: _392  and  _393
REMARK  150  A    between atoms: _393  and  _394
REMARK  151  A    between atoms: _398  and  _400
REMARK  152  A    between atoms: _400  and  _401
REMARK  153  A    between atoms: _400  and  _403
REMARK  154  A    between atoms: _403  and  _404
REMARK                            x       y       z     vdW  Elec       q    Type
REMARK                         _______ _______ _______ _____ _____    ______ ____
ROOT
ATOM      1  O   HOH     1      -0.519   5.080   7.329  0.00  0.00    +0.000 OA
ENDROOT
TORSDOF 0
REMARK  Name = ../refined-set-2016/2j7h/2j7h_pocket.pdb
REMARK  154 active torsions:
REMARK  status: ('A' for Active; 'I' for Inactive)
REMARK    1  A    between atoms: _1  and  _3
REMARK    2  A    between atoms: _3  and  _4
REMARK    3  A    between atoms: _7  and  _9
REMARK    4  A    between atoms: _9  and  _10
REMARK    5  A    between atoms: _9  and  _12
REMARK    6  A    between atoms: _12  and  _13
REMARK    7  A    between atoms: _16  and  _18
REMARK    8  A    between atoms: _18  and  _19
REMARK    9  A    between atoms: _22  and  _24
REMARK   10  A    between atoms: _24  and  _25
REMARK   11  A    between atoms: _24  and  _27
REMARK   12  A    between atoms: _27  and  _28
REMARK   13  A    between atoms: _30  and  _32
REMARK   14  A    between atoms: _32  and  _33
REMARK   15  A    between atoms: _32  and  _35
REMARK   16  A    between atoms: _35  and  _36
REMARK   17  A    between atoms: _41  and  _42
REMARK   18  A    between atoms: _44  and  _46
REMARK   19  A    between atoms: _46  and  _47
REMARK   20  A    between atoms: _46  and  _49
REMARK   21  A    between atoms: _49  and  _50
REMARK   22  A    between atoms: _50  and  _51
REMARK   23  A    between atoms: _56  and  _58
REMARK   24  A    between atoms: _58  and  _59
REMARK   25  A    between atoms: _58  and  _61
REMARK   26  A    between atoms: _61  and  _62
REMARK   27  A    between atoms: _62  and  _63
REMARK   28  A    between atoms: _63  and  _64
REMARK   29  A    between atoms: _73  and  _75
REMARK   30  A    between atoms: _75  and  _76
REMARK   31  A    between atoms: _75  and  _78
REMARK   32  A    between atoms: _78  and  _79
REMARK   33  A    between atoms: _82  and  _84
REMARK   34  A    between atoms: _84  and  _85
REMARK   35  A    between atoms: _84  and  _87
REMARK   36  A    between atoms: _87  and  _88
REMARK   37  A    between atoms: _93  and  _95
REMARK   38  A    between atoms: _95  and  _96
REMARK   39  A    between atoms: _95  and  _98
REMARK   40  A    between atoms: _98  and  _99
REMARK   41  A    between atoms: _109  and  _111
REMARK   42  A    between atoms: _111  and  _112
REMARK   43  A    between atoms: _111  and  _114
REMARK   44  A    between atoms: _114  and  _115
REMARK   45  A    between atoms: _120  and  _122
REMARK   46  A    between atoms: _122  and  _123
REMARK   47  A    between atoms: _122  and  _125
REMARK   48  A    between atoms: _125  and  _126
REMARK   49  A    between atoms: _126  and  _127
REMARK   50  A    between atoms: _130  and  _132
REMARK   51  A    between atoms: _132  and  _133
REMARK   52  A    between atoms: _132  and  _135
REMARK   53  A    between atoms: _138  and  _140
REMARK   54  A    between atoms: _140  and  _141
REMARK   55  A    between atoms: _140  and  _143
REMARK   56  A    between atoms: _143  and  _144
REMARK   57  A    between atoms: _149  and  _151
REMARK   58  A    between atoms: _151  and  _152
REMARK   59  A    between atoms: _151  and  _154
REMARK   60  A    between atoms: _157  and  _159
REMARK   61  A    between atoms: _159  and  _160
REMARK   62  A    between atoms: _159  and  _162
REMARK   63  A    between atoms: _162  and  _163
REMARK   64  A    between atoms: _169  and  _171
REMARK   65  A    between atoms: _171  and  _172
REMARK   66  A    between atoms: _171  and  _174
REMARK   67  A    between atoms: _174  and  _175
REMARK   68  A    between atoms: _180  and  _182
REMARK   69  A    between atoms: _182  and  _183
REMARK   70  A    between atoms: _182  and  _185
REMARK   71  A    between atoms: _185  and  _186
REMARK   72  A    between atoms: _191  and  _193
REMARK   73  A    between atoms: _193  and  _194
REMARK   74  A    between atoms: _193  and  _196
REMARK   75  A    between atoms: _196  and  _197
REMARK   76  A    between atoms: _202  and  _204
REMARK   77  A    between atoms: _204  and  _205
REMARK   78  A    between atoms: _204  and  _207
REMARK   79  A    between atoms: _207  and  _208
REMARK   80  A    between atoms: _213  and  _214
REMARK   81  A    between atoms: _216  and  _218
REMARK   82  A    between atoms: _218  and  _219
REMARK   83  A    between atoms: _218  and  _221
REMARK   84  A    between atoms: _221  and  _222
REMARK   85  A    between atoms: _227  and  _228
REMARK   86  A    between atoms: _230  and  _232
REMARK   87  A    between atoms: _232  and  _233
REMARK   88  A    between atoms: _232  and  _235
REMARK   89  A    between atoms: _235  and  _236
REMARK   90  A    between atoms: _236  and  _237
REMARK   91  A    between atoms: _239  and  _241
REMARK   92  A    between atoms: _241  and  _242
REMARK   93  A    between atoms: _241  and  _244
REMARK   94  A    between atoms: _244  and  _245
REMARK   95  A    between atoms: _255  and  _257
REMARK   96  A    between atoms: _257  and  _258
REMARK   97  A    between atoms: _257  and  _260
REMARK   98  A    between atoms: _260  and  _261
REMARK   99  A    between atoms: _264  and  _266
REMARK  100  A    between atoms: _266  and  _267
REMARK  101  A    between atoms: _266  and  _269
REMARK  102  A    between atoms: _269  and  _270
REMARK  103  A    between atoms: _270  and  _271
REMARK  104  A    between atoms: _274  and  _276
REMARK  105  A    between atoms: _276  and  _277
REMARK  106  A    between atoms: _276  and  _279
REMARK  107  A    between atoms: _279  and  _280
REMARK  108  A    between atoms: _285  and  _287
REMARK  109  A    between atoms: _287  and  _288
REMARK  110  A    between atoms: _290  and  _292
REMARK  111  A    between atoms: _292  and  _293
REMARK  112  A    between atoms: _296  and  _298
REMARK  113  A    between atoms: _298  and  _299
REMARK  114  A    between atoms: _302  and  _304
REMARK  115  A    between atoms: _304  and  _305
REMARK  116  A    between atoms: _304  and  _307
REMARK  117  A    between atoms: _307  and  _308
REMARK  118  A    between atoms: _318  and  _320
REMARK  119  A    between atoms: _320  and  _321
REMARK  120  A    between atoms: _320  and  _323
REMARK  121  A    between atoms: _323  and  _324
REMARK  122  A    between atoms: _326  and  _328
REMARK  123  A    between atoms: _328  and  _329
REMARK  124  A    between atoms: _328  and  _331
REMARK  125  A    between atoms: _331  and  _332
REMARK  126  A    between atoms: _337  and  _339
REMARK  127  A    between atoms: _339  and  _340
REMARK  128  A    between atoms: _339  and  _342
REMARK  129  A    between atoms: _342  and  _343
REMARK  130  A    between atoms: _349  and  _351
REMARK  131  A    between atoms: _351  and  _352
REMARK  132  A    between atoms: _351  and  _354
REMARK  133  A    between atoms: _354  and  _355
REMARK  134  A    between atoms: _355  and  _356
REMARK  135  A    between atoms: _359  and  _361
REMARK  136  A    between atoms: _361  and  _362
REMARK  137  A    between atoms: _361  and  _364
REMARK  138  A    between atoms: _364  and  _365
REMARK  139  A    between atoms: _375  and  _377
REMARK  140  A    between atoms: _377  and  _378
REMARK  141  A    between atoms: _377  and  _380
REMARK  142  A    between atoms: _380  and  _381
REMARK  143  A    between atoms: _381  and  _382
REMARK  144  A    between atoms: _385  and  _387
REMARK  145  A    between atoms: _387  and  _388
REMARK  146  A    between atoms: _387  and  _390
REMARK  147  A    between atoms: _390  and  _391
REMARK  148  A    between atoms: _391  and  _392
REMARK  149  A    between atoms: _392  and  _393
REMARK  150  A    between atoms: _393  and  _394
REMARK  151  A    between atoms: _398  and  _400
REMARK  152  A    between atoms: _400  and  _401
REMARK  153  A    between atoms: _400  and  _403
REMARK  154  A    between atoms: _403  and  _404
REMARK                            x       y       z     vdW  Elec       q    Type
REMARK                         _______ _______ _______ _____ _____    ______ ____
ROOT
ATOM      1  O   HOH     1      -3.862  10.592   4.127  0.00  0.00    +0.000 OA
ENDROOT
TORSDOF 0
REMARK  Name = ../refined-set-2016/2j7h/2j7h_pocket.pdb
REMARK  154 active torsions:
REMARK  status: ('A' for Active; 'I' for Inactive)
REMARK    1  A    between atoms: _1  and  _3
REMARK    2  A    between atoms: _3  and  _4
REMARK    3  A    between atoms: _7  and  _9
REMARK    4  A    between atoms: _9  and  _10
REMARK    5  A    between atoms: _9  and  _12
REMARK    6  A    between atoms: _12  and  _13
REMARK    7  A    between atoms: _16  and  _18
REMARK    8  A    between atoms: _18  and  _19
REMARK    9  A    between atoms: _22  and  _24
REMARK   10  A    between atoms: _24  and  _25
REMARK   11  A    between atoms: _24  and  _27
REMARK   12  A    between atoms: _27  and  _28
REMARK   13  A    between atoms: _30  and  _32
REMARK   14  A    between atoms: _32  and  _33
REMARK   15  A    between atoms: _32  and  _35
REMARK   16  A    between atoms: _35  and  _36
REMARK   17  A    between atoms: _41  and  _42
REMARK   18  A    between atoms: _44  and  _46
REMARK   19  A    between atoms: _46  and  _47
REMARK   20  A    between atoms: _46  and  _49
REMARK   21  A    between atoms: _49  and  _50
REMARK   22  A    between atoms: _50  and  _51
REMARK   23  A    between atoms: _56  and  _58
REMARK   24  A    between atoms: _58  and  _59
REMARK   25  A    between atoms: _58  and  _61
REMARK   26  A    between atoms: _61  and  _62
REMARK   27  A    between atoms: _62  and  _63
REMARK   28  A    between atoms: _63  and  _64
REMARK   29  A    between atoms: _73  and  _75
REMARK   30  A    between atoms: _75  and  _76
REMARK   31  A    between atoms: _75  and  _78
REMARK   32  A    between atoms: _78  and  _79
REMARK   33  A    between atoms: _82  and  _84
REMARK   34  A    between atoms: _84  and  _85
REMARK   35  A    between atoms: _84  and  _87
REMARK   36  A    between atoms: _87  and  _88
REMARK   37  A    between atoms: _93  and  _95
REMARK   38  A    between atoms: _95  and  _96
REMARK   39  A    between atoms: _95  and  _98
REMARK   40  A    between atoms: _98  and  _99
REMARK   41  A    between atoms: _109  and  _111
REMARK   42  A    between atoms: _111  and  _112
REMARK   43  A    between atoms: _111  and  _114
REMARK   44  A    between atoms: _114  and  _115
REMARK   45  A    between atoms: _120  and  _122
REMARK   46  A    between atoms: _122  and  _123
REMARK   47  A    between atoms: _122  and  _125
REMARK   48  A    between atoms: _125  and  _126
REMARK   49  A    between atoms: _126  and  _127
REMARK   50  A    between atoms: _130  and  _132
REMARK   51  A    between atoms: _132  and  _133
REMARK   52  A    between atoms: _132  and  _135
REMARK   53  A    between atoms: _138  and  _140
REMARK   54  A    between atoms: _140  and  _141
REMARK   55  A    between atoms: _140  and  _143
REMARK   56  A    between atoms: _143  and  _144
REMARK   57  A    between atoms: _149  and  _151
REMARK   58  A    between atoms: _151  and  _152
REMARK   59  A    between atoms: _151  and  _154
REMARK   60  A    between atoms: _157  and  _159
REMARK   61  A    between atoms: _159  and  _160
REMARK   62  A    between atoms: _159  and  _162
REMARK   63  A    between atoms: _162  and  _163
REMARK   64  A    between atoms: _169  and  _171
REMARK   65  A    between atoms: _171  and  _172
REMARK   66  A    between atoms: _171  and  _174
REMARK   67  A    between atoms: _174  and  _175
REMARK   68  A    between atoms: _180  and  _182
REMARK   69  A    between atoms: _182  and  _183
REMARK   70  A    between atoms: _182  and  _185
REMARK   71  A    between atoms: _185  and  _186
REMARK   72  A    between atoms: _191  and  _193
REMARK   73  A    between atoms: _193  and  _194
REMARK   74  A    between atoms: _193  and  _196
REMARK   75  A    between atoms: _196  and  _197
REMARK   76  A    between atoms: _202  and  _204
REMARK   77  A    between atoms: _204  and  _205
REMARK   78  A    between atoms: _204  and  _207
REMARK   79  A    between atoms: _207  and  _208
REMARK   80  A    between atoms: _213  and  _214
REMARK   81  A    between atoms: _216  and  _218
REMARK   82  A    between atoms: _218  and  _219
REMARK   83  A    between atoms: _218  and  _221
REMARK   84  A    between atoms: _221  and  _222
REMARK   85  A    between atoms: _227  and  _228
REMARK   86  A    between atoms: _230  and  _232
REMARK   87  A    between atoms: _232  and  _233
REMARK   88  A    between atoms: _232  and  _235
REMARK   89  A    between atoms: _235  and  _236
REMARK   90  A    between atoms: _236  and  _237
REMARK   91  A    between atoms: _239  and  _241
REMARK   92  A    between atoms: _241  and  _242
REMARK   93  A    between atoms: _241  and  _244
REMARK   94  A    between atoms: _244  and  _245
REMARK   95  A    between atoms: _255  and  _257
REMARK   96  A    between atoms: _257  and  _258
REMARK   97  A    between atoms: _257  and  _260
REMARK   98  A    between atoms: _260  and  _261
REMARK   99  A    between atoms: _264  and  _266
REMARK  100  A    between atoms: _266  and  _267
REMARK  101  A    between atoms: _266  and  _269
REMARK  102  A    between atoms: _269  and  _270
REMARK  103  A    between atoms: _270  and  _271
REMARK  104  A    between atoms: _274  and  _276
REMARK  105  A    between atoms: _276  and  _277
REMARK  106  A    between atoms: _276  and  _279
REMARK  107  A    between atoms: _279  and  _280
REMARK  108  A    between atoms: _285  and  _287
REMARK  109  A    between atoms: _287  and  _288
REMARK  110  A    between atoms: _290  and  _292
REMARK  111  A    between atoms: _292  and  _293
REMARK  112  A    between atoms: _296  and  _298
REMARK  113  A    between atoms: _298  and  _299
REMARK  114  A    between atoms: _302  and  _304
REMARK  115  A    between atoms: _304  and  _305
REMARK  116  A    between atoms: _304  and  _307
REMARK  117  A    between atoms: _307  and  _308
REMARK  118  A    between atoms: _318  and  _320
REMARK  119  A    between atoms: _320  and  _321
REMARK  120  A    between atoms: _320  and  _323
REMARK  121  A    between atoms: _323  and  _324
REMARK  122  A    between atoms: _326  and  _328
REMARK  123  A    between atoms: _328  and  _329
REMARK  124  A    between atoms: _328  and  _331
REMARK  125  A    between atoms: _331  and  _332
REMARK  126  A    between atoms: _337  and  _339
REMARK  127  A    between atoms: _339  and  _340
REMARK  128  A    between atoms: _339  and  _342
REMARK  129  A    between atoms: _342  and  _343
REMARK  130  A    between atoms: _349  and  _351
REMARK  131  A    between atoms: _351  and  _352
REMARK  132  A    between atoms: _351  and  _354
REMARK  133  A    between atoms: _354  and  _355
REMARK  134  A    between atoms: _355  and  _356
REMARK  135  A    between atoms: _359  and  _361
REMARK  136  A    between atoms: _361  and  _362
REMARK  137  A    between atoms: _361  and  _364
REMARK  138  A    between atoms: _364  and  _365
REMARK  139  A    between atoms: _375  and  _377
REMARK  140  A    between atoms: _377  and  _378
REMARK  141  A    between atoms: _377  and  _380
REMARK  142  A    between atoms: _380  and  _381
REMARK  143  A    between atoms: _381  and  _382
REMARK  144  A    between atoms: _385  and  _387
REMARK  145  A    between atoms: _387  and  _388
REMARK  146  A    between atoms: _387  and  _390
REMARK  147  A    between atoms: _390  and  _391
REMARK  148  A    between atoms: _391  and  _392
REMARK  149  A    between atoms: _392  and  _393
REMARK  150  A    between atoms: _393  and  _394
REMARK  151  A    between atoms: _398  and  _400
REMARK  152  A    between atoms: _400  and  _401
REMARK  153  A    between atoms: _400  and  _403
REMARK  154  A    between atoms: _403  and  _404
REMARK                            x       y       z     vdW  Elec       q    Type
REMARK                         _______ _______ _______ _____ _____    ______ ____
ROOT
ATOM      1  O   HOH     1      -5.789  10.024   1.841  0.00  0.00    +0.000 OA
ENDROOT
TORSDOF 0
