REMARK  Name = ../refined-set-2016/2o4p/2o4p_pocket.pdb
REMARK  219 active torsions:
REMARK  status: ('A' for Active; 'I' for Inactive)
REMARK    1  A    between atoms: _1  and  _3
REMARK    2  A    between atoms: _3  and  _4
REMARK    3  A    between atoms: _3  and  _6
REMARK    4  A    between atoms: _6  and  _7
REMARK    5  A    between atoms: _7  and  _8
REMARK    6  A    between atoms: _8  and  _9
REMARK    7  A    between atoms: _18  and  _20
REMARK    8  A    between atoms: _20  and  _21
REMARK    9  A    between atoms: _20  and  _23
REMARK   10  A    between atoms: _23  and  _24
REMARK   11  A    between atoms: _27  and  _29
REMARK   12  A    between atoms: _29  and  _30
REMARK   13  A    between atoms: _29  and  _32
REMARK   14  A    between atoms: _32  and  _33
REMARK   15  A    between atoms: _36  and  _38
REMARK   16  A    between atoms: _38  and  _39
REMARK   17  A    between atoms: _38  and  _41
REMARK   18  A    between atoms: _41  and  _42
REMARK   19  A    between atoms: _45  and  _47
REMARK   20  A    between atoms: _47  and  _48
REMARK   21  A    between atoms: _47  and  _50
REMARK   22  A    between atoms: _50  and  _51
REMARK   23  A    between atoms: _54  and  _56
REMARK   24  A    between atoms: _56  and  _57
REMARK   25  A    between atoms: _56  and  _59
REMARK   26  A    between atoms: _59  and  _60
REMARK   27  A    between atoms: _63  and  _65
REMARK   28  A    between atoms: _65  and  _66
REMARK   29  A    between atoms: _68  and  _70
REMARK   30  A    between atoms: _70  and  _71
REMARK   31  A    between atoms: _74  and  _76
REMARK   32  A    between atoms: _76  and  _77
REMARK   33  A    between atoms: _76  and  _79
REMARK   34  A    between atoms: _79  and  _80
REMARK   35  A    between atoms: _83  and  _85
REMARK   36  A    between atoms: _85  and  _86
REMARK   37  A    between atoms: _85  and  _88
REMARK   38  A    between atoms: _88  and  _89
REMARK   39  A    between atoms: _92  and  _94
REMARK   40  A    between atoms: _94  and  _95
REMARK   41  A    between atoms: _94  and  _97
REMARK   42  A    between atoms: _97  and  _98
REMARK   43  A    between atoms: _101  and  _103
REMARK   44  A    between atoms: _103  and  _104
REMARK   45  A    between atoms: _103  and  _106
REMARK   46  A    between atoms: _109  and  _111
REMARK   47  A    between atoms: _111  and  _112
REMARK   48  A    between atoms: _111  and  _114
REMARK   49  A    between atoms: _114  and  _115
REMARK   50  A    between atoms: _115  and  _116
REMARK   51  A    between atoms: _116  and  _117
REMARK   52  A    between atoms: _117  and  _118
REMARK   53  A    between atoms: _122  and  _124
REMARK   54  A    between atoms: _124  and  _125
REMARK   55  A    between atoms: _124  and  _127
REMARK   56  A    between atoms: _127  and  _128
REMARK   57  A    between atoms: _128  and  _129
REMARK   58  A    between atoms: _131  and  _133
REMARK   59  A    between atoms: _133  and  _134
REMARK   60  A    between atoms: _133  and  _136
REMARK   61  A    between atoms: _136  and  _137
REMARK   62  A    between atoms: _140  and  _142
REMARK   63  A    between atoms: _142  and  _143
REMARK   64  A    between atoms: _145  and  _147
REMARK   65  A    between atoms: _147  and  _148
REMARK   66  A    between atoms: _150  and  _152
REMARK   67  A    between atoms: _152  and  _153
REMARK   68  A    between atoms: _152  and  _155
REMARK   69  A    between atoms: _155  and  _156
REMARK   70  A    between atoms: _159  and  _161
REMARK   71  A    between atoms: _161  and  _162
REMARK   72  A    between atoms: _164  and  _166
REMARK   73  A    between atoms: _166  and  _167
REMARK   74  A    between atoms: _169  and  _171
REMARK   75  A    between atoms: _171  and  _172
REMARK   76  A    between atoms: _171  and  _174
REMARK   77  A    between atoms: _174  and  _175
REMARK   78  A    between atoms: _181  and  _183
REMARK   79  A    between atoms: _183  and  _184
REMARK   80  A    between atoms: _183  and  _186
REMARK   81  A    between atoms: _186  and  _187
REMARK   82  A    between atoms: _190  and  _192
REMARK   83  A    between atoms: _192  and  _193
REMARK   84  A    between atoms: _192  and  _195
REMARK   85  A    between atoms: _195  and  _196
REMARK   86  A    between atoms: _199  and  _201
REMARK   87  A    between atoms: _201  and  _202
REMARK   88  A    between atoms: _201  and  _204
REMARK   89  A    between atoms: _204  and  _205
REMARK   90  A    between atoms: _209  and  _210
REMARK   91  A    between atoms: _215  and  _217
REMARK   92  A    between atoms: _217  and  _218
REMARK   93  A    between atoms: _217  and  _220
REMARK   94  A    between atoms: _223  and  _225
REMARK   95  A    between atoms: _225  and  _226
REMARK   96  A    between atoms: _225  and  _228
REMARK   97  A    between atoms: _228  and  _229
REMARK   98  A    between atoms: _234  and  _236
REMARK   99  A    between atoms: _236  and  _237
REMARK  100  A    between atoms: _236  and  _239
REMARK  101  A    between atoms: _239  and  _240
REMARK  102  A    between atoms: _243  and  _245
REMARK  103  A    between atoms: _245  and  _246
REMARK  104  A    between atoms: _245  and  _248
REMARK  105  A    between atoms: _248  and  _249
REMARK  106  A    between atoms: _252  and  _254
REMARK  107  A    between atoms: _254  and  _255
REMARK  108  A    between atoms: _257  and  _259
REMARK  109  A    between atoms: _259  and  _260
REMARK  110  A    between atoms: _259  and  _262
REMARK  111  A    between atoms: _262  and  _263
REMARK  112  A    between atoms: _263  and  _264
REMARK  113  A    between atoms: _264  and  _265
REMARK  114  A    between atoms: _274  and  _276
REMARK  115  A    between atoms: _276  and  _277
REMARK  116  A    between atoms: _276  and  _279
REMARK  117  A    between atoms: _279  and  _280
REMARK  118  A    between atoms: _285  and  _287
REMARK  119  A    between atoms: _287  and  _288
REMARK  120  A    between atoms: _287  and  _290
REMARK  121  A    between atoms: _290  and  _291
REMARK  122  A    between atoms: _291  and  _292
REMARK  123  A    between atoms: _292  and  _293
REMARK  124  A    between atoms: _303  and  _304
REMARK  125  A    between atoms: _309  and  _311
REMARK  126  A    between atoms: _311  and  _312
REMARK  127  A    between atoms: _311  and  _314
REMARK  128  A    between atoms: _314  and  _315
REMARK  129  A    between atoms: _318  and  _320
REMARK  130  A    between atoms: _320  and  _321
REMARK  131  A    between atoms: _320  and  _323
REMARK  132  A    between atoms: _323  and  _324
REMARK  133  A    between atoms: _327  and  _329
REMARK  134  A    between atoms: _329  and  _330
REMARK  135  A    between atoms: _329  and  _332
REMARK  136  A    between atoms: _332  and  _333
REMARK  137  A    between atoms: _336  and  _338
REMARK  138  A    between atoms: _338  and  _339
REMARK  139  A    between atoms: _338  and  _341
REMARK  140  A    between atoms: _341  and  _342
REMARK  141  A    between atoms: _345  and  _347
REMARK  142  A    between atoms: _347  and  _348
REMARK  143  A    between atoms: _347  and  _350
REMARK  144  A    between atoms: _350  and  _351
REMARK  145  A    between atoms: _354  and  _356
REMARK  146  A    between atoms: _356  and  _357
REMARK  147  A    between atoms: _359  and  _361
REMARK  148  A    between atoms: _361  and  _362
REMARK  149  A    between atoms: _365  and  _367
REMARK  150  A    between atoms: _367  and  _368
REMARK  151  A    between atoms: _367  and  _370
REMARK  152  A    between atoms: _370  and  _371
REMARK  153  A    between atoms: _374  and  _376
REMARK  154  A    between atoms: _376  and  _377
REMARK  155  A    between atoms: _376  and  _379
REMARK  156  A    between atoms: _379  and  _380
REMARK  157  A    between atoms: _383  and  _385
REMARK  158  A    between atoms: _385  and  _386
REMARK  159  A    between atoms: _385  and  _388
REMARK  160  A    between atoms: _388  and  _389
REMARK  161  A    between atoms: _392  and  _394
REMARK  162  A    between atoms: _394  and  _395
REMARK  163  A    between atoms: _394  and  _397
REMARK  164  A    between atoms: _400  and  _402
REMARK  165  A    between atoms: _402  and  _403
REMARK  166  A    between atoms: _402  and  _405
REMARK  167  A    between atoms: _405  and  _406
REMARK  168  A    between atoms: _409  and  _411
REMARK  169  A    between atoms: _411  and  _412
REMARK  170  A    between atoms: _414  and  _416
REMARK  171  A    between atoms: _416  and  _417
REMARK  172  A    between atoms: _419  and  _421
REMARK  173  A    between atoms: _421  and  _422
REMARK  174  A    between atoms: _421  and  _424
REMARK  175  A    between atoms: _424  and  _425
REMARK  176  A    between atoms: _428  and  _430
REMARK  177  A    between atoms: _430  and  _431
REMARK  178  A    between atoms: _433  and  _435
REMARK  179  A    between atoms: _435  and  _436
REMARK  180  A    between atoms: _438  and  _440
REMARK  181  A    between atoms: _440  and  _441
REMARK  182  A    between atoms: _440  and  _443
REMARK  183  A    between atoms: _443  and  _444
REMARK  184  A    between atoms: _450  and  _452
REMARK  185  A    between atoms: _452  and  _453
REMARK  186  A    between atoms: _452  and  _455
REMARK  187  A    between atoms: _455  and  _456
REMARK  188  A    between atoms: _459  and  _461
REMARK  189  A    between atoms: _461  and  _462
REMARK  190  A    between atoms: _461  and  _464
REMARK  191  A    between atoms: _464  and  _465
REMARK  192  A    between atoms: _468  and  _470
REMARK  193  A    between atoms: _470  and  _471
REMARK  194  A    between atoms: _470  and  _473
REMARK  195  A    between atoms: _473  and  _474
REMARK  196  A    between atoms: _478  and  _479
REMARK  197  A    between atoms: _484  and  _486
REMARK  198  A    between atoms: _486  and  _487
REMARK  199  A    between atoms: _486  and  _489
REMARK  200  A    between atoms: _492  and  _494
REMARK  201  A    between atoms: _494  and  _495
REMARK  202  A    between atoms: _494  and  _497
REMARK  203  A    between atoms: _497  and  _498
REMARK  204  A    between atoms: _503  and  _505
REMARK  205  A    between atoms: _505  and  _506
REMARK  206  A    between atoms: _505  and  _508
REMARK  207  A    between atoms: _508  and  _509
REMARK  208  A    between atoms: _512  and  _514
REMARK  209  A    between atoms: _514  and  _515
REMARK  210  A    between atoms: _514  and  _517
REMARK  211  A    between atoms: _517  and  _518
REMARK  212  A    between atoms: _521  and  _523
REMARK  213  A    between atoms: _523  and  _524
REMARK  214  A    between atoms: _526  and  _528
REMARK  215  A    between atoms: _528  and  _529
REMARK  216  A    between atoms: _528  and  _531
REMARK  217  A    between atoms: _531  and  _532
REMARK  218  A    between atoms: _532  and  _533
REMARK  219  A    between atoms: _533  and  _534
REMARK                            x       y       z     vdW  Elec       q    Type
REMARK                         _______ _______ _______ _____ _____    ______ ____
ROOT
ATOM      1  NE  ARG A   1      23.280  23.077  15.241  0.00  0.00    -0.265 N 
ATOM      2  HE  ARG A   1      23.162  23.244  16.261  0.00  0.00    +0.259 HD
ATOM      3  CZ  ARG A   1      22.942  24.049  14.399  0.00  0.00    +0.342 C 
ATOM      4  NH2 ARG A   1      22.448  25.194  14.857  0.00  0.00    -0.292 N 
ATOM      5 HH21 ARG A   1      22.324  25.334  15.880  0.00  0.00    +0.255 HD
ATOM      6 HH22 ARG A   1      22.186  25.950  14.193  0.00  0.00    +0.255 HD
ATOM      7  NH1 ARG A   1      23.086  23.863  13.087  0.00  0.00    -0.292 N 
ATOM      8 HH11 ARG A   1      23.461  22.962  12.728  0.00  0.00    +0.255 HD
ATOM      9 HH12 ARG A   1      22.824  24.619  12.423  0.00  0.00    +0.255 HD
ENDROOT
BRANCH   1  10
ATOM     10  CD  ARG A   1      23.806  21.793  14.807  0.00  0.00    +0.174 C 
BRANCH  10  11
ATOM     11  CG  ARG A   1      24.367  21.002  15.939  0.00  0.00    +0.045 C 
BRANCH  11  12
ATOM     12  CB  ARG A   1      24.977  19.691  15.479  0.00  0.00    +0.029 C 
BRANCH  12  13
ATOM     13  CA  ARG A   1      25.528  18.848  16.631  0.00  0.00    +0.133 C 
BRANCH  13  14
ATOM     14  N   ARG A   1      26.733  19.464  17.177  0.00  0.00    -0.239 NA
ATOM     15  H   ARG A   1      27.060  20.366  16.776  0.00  0.00    +0.142 HD
ENDBRANCH  13  14
BRANCH  13  16
ATOM     16  C   ARG A   1      25.851  17.446  16.143  0.00  0.00    +0.224 C 
ATOM     17  O   ARG A   1      26.832  17.279  15.380  0.00  0.00    -0.287 OA
ENDBRANCH  13  16
ENDBRANCH  12  13
ENDBRANCH  11  12
ENDBRANCH  10  11
ENDBRANCH   1  10
TORSDOF 6
REMARK  Name = ../refined-set-2016/2o4p/2o4p_pocket.pdb
REMARK  219 active torsions:
REMARK  status: ('A' for Active; 'I' for Inactive)
REMARK    1  A    between atoms: _1  and  _3
REMARK    2  A    between atoms: _3  and  _4
REMARK    3  A    between atoms: _3  and  _6
REMARK    4  A    between atoms: _6  and  _7
REMARK    5  A    between atoms: _7  and  _8
REMARK    6  A    between atoms: _8  and  _9
REMARK    7  A    between atoms: _18  and  _20
REMARK    8  A    between atoms: _20  and  _21
REMARK    9  A    between atoms: _20  and  _23
REMARK   10  A    between atoms: _23  and  _24
REMARK   11  A    between atoms: _27  and  _29
REMARK   12  A    between atoms: _29  and  _30
REMARK   13  A    between atoms: _29  and  _32
REMARK   14  A    between atoms: _32  and  _33
REMARK   15  A    between atoms: _36  and  _38
REMARK   16  A    between atoms: _38  and  _39
REMARK   17  A    between atoms: _38  and  _41
REMARK   18  A    between atoms: _41  and  _42
REMARK   19  A    between atoms: _45  and  _47
REMARK   20  A    between atoms: _47  and  _48
REMARK   21  A    between atoms: _47  and  _50
REMARK   22  A    between atoms: _50  and  _51
REMARK   23  A    between atoms: _54  and  _56
REMARK   24  A    between atoms: _56  and  _57
REMARK   25  A    between atoms: _56  and  _59
REMARK   26  A    between atoms: _59  and  _60
REMARK   27  A    between atoms: _63  and  _65
REMARK   28  A    between atoms: _65  and  _66
REMARK   29  A    between atoms: _68  and  _70
REMARK   30  A    between atoms: _70  and  _71
REMARK   31  A    between atoms: _74  and  _76
REMARK   32  A    between atoms: _76  and  _77
REMARK   33  A    between atoms: _76  and  _79
REMARK   34  A    between atoms: _79  and  _80
REMARK   35  A    between atoms: _83  and  _85
REMARK   36  A    between atoms: _85  and  _86
REMARK   37  A    between atoms: _85  and  _88
REMARK   38  A    between atoms: _88  and  _89
REMARK   39  A    between atoms: _92  and  _94
REMARK   40  A    between atoms: _94  and  _95
REMARK   41  A    between atoms: _94  and  _97
REMARK   42  A    between atoms: _97  and  _98
REMARK   43  A    between atoms: _101  and  _103
REMARK   44  A    between atoms: _103  and  _104
REMARK   45  A    between atoms: _103  and  _106
REMARK   46  A    between atoms: _109  and  _111
REMARK   47  A    between atoms: _111  and  _112
REMARK   48  A    between atoms: _111  and  _114
REMARK   49  A    between atoms: _114  and  _115
REMARK   50  A    between atoms: _115  and  _116
REMARK   51  A    between atoms: _116  and  _117
REMARK   52  A    between atoms: _117  and  _118
REMARK   53  A    between atoms: _122  and  _124
REMARK   54  A    between atoms: _124  and  _125
REMARK   55  A    between atoms: _124  and  _127
REMARK   56  A    between atoms: _127  and  _128
REMARK   57  A    between atoms: _128  and  _129
REMARK   58  A    between atoms: _131  and  _133
REMARK   59  A    between atoms: _133  and  _134
REMARK   60  A    between atoms: _133  and  _136
REMARK   61  A    between atoms: _136  and  _137
REMARK   62  A    between atoms: _140  and  _142
REMARK   63  A    between atoms: _142  and  _143
REMARK   64  A    between atoms: _145  and  _147
REMARK   65  A    between atoms: _147  and  _148
REMARK   66  A    between atoms: _150  and  _152
REMARK   67  A    between atoms: _152  and  _153
REMARK   68  A    between atoms: _152  and  _155
REMARK   69  A    between atoms: _155  and  _156
REMARK   70  A    between atoms: _159  and  _161
REMARK   71  A    between atoms: _161  and  _162
REMARK   72  A    between atoms: _164  and  _166
REMARK   73  A    between atoms: _166  and  _167
REMARK   74  A    between atoms: _169  and  _171
REMARK   75  A    between atoms: _171  and  _172
REMARK   76  A    between atoms: _171  and  _174
REMARK   77  A    between atoms: _174  and  _175
REMARK   78  A    between atoms: _181  and  _183
REMARK   79  A    between atoms: _183  and  _184
REMARK   80  A    between atoms: _183  and  _186
REMARK   81  A    between atoms: _186  and  _187
REMARK   82  A    between atoms: _190  and  _192
REMARK   83  A    between atoms: _192  and  _193
REMARK   84  A    between atoms: _192  and  _195
REMARK   85  A    between atoms: _195  and  _196
REMARK   86  A    between atoms: _199  and  _201
REMARK   87  A    between atoms: _201  and  _202
REMARK   88  A    between atoms: _201  and  _204
REMARK   89  A    between atoms: _204  and  _205
REMARK   90  A    between atoms: _209  and  _210
REMARK   91  A    between atoms: _215  and  _217
REMARK   92  A    between atoms: _217  and  _218
REMARK   93  A    between atoms: _217  and  _220
REMARK   94  A    between atoms: _223  and  _225
REMARK   95  A    between atoms: _225  and  _226
REMARK   96  A    between atoms: _225  and  _228
REMARK   97  A    between atoms: _228  and  _229
REMARK   98  A    between atoms: _234  and  _236
REMARK   99  A    between atoms: _236  and  _237
REMARK  100  A    between atoms: _236  and  _239
REMARK  101  A    between atoms: _239  and  _240
REMARK  102  A    between atoms: _243  and  _245
REMARK  103  A    between atoms: _245  and  _246
REMARK  104  A    between atoms: _245  and  _248
REMARK  105  A    between atoms: _248  and  _249
REMARK  106  A    between atoms: _252  and  _254
REMARK  107  A    between atoms: _254  and  _255
REMARK  108  A    between atoms: _257  and  _259
REMARK  109  A    between atoms: _259  and  _260
REMARK  110  A    between atoms: _259  and  _262
REMARK  111  A    between atoms: _262  and  _263
REMARK  112  A    between atoms: _263  and  _264
REMARK  113  A    between atoms: _264  and  _265
REMARK  114  A    between atoms: _274  and  _276
REMARK  115  A    between atoms: _276  and  _277
REMARK  116  A    between atoms: _276  and  _279
REMARK  117  A    between atoms: _279  and  _280
REMARK  118  A    between atoms: _285  and  _287
REMARK  119  A    between atoms: _287  and  _288
REMARK  120  A    between atoms: _287  and  _290
REMARK  121  A    between atoms: _290  and  _291
REMARK  122  A    between atoms: _291  and  _292
REMARK  123  A    between atoms: _292  and  _293
REMARK  124  A    between atoms: _303  and  _304
REMARK  125  A    between atoms: _309  and  _311
REMARK  126  A    between atoms: _311  and  _312
REMARK  127  A    between atoms: _311  and  _314
REMARK  128  A    between atoms: _314  and  _315
REMARK  129  A    between atoms: _318  and  _320
REMARK  130  A    between atoms: _320  and  _321
REMARK  131  A    between atoms: _320  and  _323
REMARK  132  A    between atoms: _323  and  _324
REMARK  133  A    between atoms: _327  and  _329
REMARK  134  A    between atoms: _329  and  _330
REMARK  135  A    between atoms: _329  and  _332
REMARK  136  A    between atoms: _332  and  _333
REMARK  137  A    between atoms: _336  and  _338
REMARK  138  A    between atoms: _338  and  _339
REMARK  139  A    between atoms: _338  and  _341
REMARK  140  A    between atoms: _341  and  _342
REMARK  141  A    between atoms: _345  and  _347
REMARK  142  A    between atoms: _347  and  _348
REMARK  143  A    between atoms: _347  and  _350
REMARK  144  A    between atoms: _350  and  _351
REMARK  145  A    between atoms: _354  and  _356
REMARK  146  A    between atoms: _356  and  _357
REMARK  147  A    between atoms: _359  and  _361
REMARK  148  A    between atoms: _361  and  _362
REMARK  149  A    between atoms: _365  and  _367
REMARK  150  A    between atoms: _367  and  _368
REMARK  151  A    between atoms: _367  and  _370
REMARK  152  A    between atoms: _370  and  _371
REMARK  153  A    between atoms: _374  and  _376
REMARK  154  A    between atoms: _376  and  _377
REMARK  155  A    between atoms: _376  and  _379
REMARK  156  A    between atoms: _379  and  _380
REMARK  157  A    between atoms: _383  and  _385
REMARK  158  A    between atoms: _385  and  _386
REMARK  159  A    between atoms: _385  and  _388
REMARK  160  A    between atoms: _388  and  _389
REMARK  161  A    between atoms: _392  and  _394
REMARK  162  A    between atoms: _394  and  _395
REMARK  163  A    between atoms: _394  and  _397
REMARK  164  A    between atoms: _400  and  _402
REMARK  165  A    between atoms: _402  and  _403
REMARK  166  A    between atoms: _402  and  _405
REMARK  167  A    between atoms: _405  and  _406
REMARK  168  A    between atoms: _409  and  _411
REMARK  169  A    between atoms: _411  and  _412
REMARK  170  A    between atoms: _414  and  _416
REMARK  171  A    between atoms: _416  and  _417
REMARK  172  A    between atoms: _419  and  _421
REMARK  173  A    between atoms: _421  and  _422
REMARK  174  A    between atoms: _421  and  _424
REMARK  175  A    between atoms: _424  and  _425
REMARK  176  A    between atoms: _428  and  _430
REMARK  177  A    between atoms: _430  and  _431
REMARK  178  A    between atoms: _433  and  _435
REMARK  179  A    between atoms: _435  and  _436
REMARK  180  A    between atoms: _438  and  _440
REMARK  181  A    between atoms: _440  and  _441
REMARK  182  A    between atoms: _440  and  _443
REMARK  183  A    between atoms: _443  and  _444
REMARK  184  A    between atoms: _450  and  _452
REMARK  185  A    between atoms: _452  and  _453
REMARK  186  A    between atoms: _452  and  _455
REMARK  187  A    between atoms: _455  and  _456
REMARK  188  A    between atoms: _459  and  _461
REMARK  189  A    between atoms: _461  and  _462
REMARK  190  A    between atoms: _461  and  _464
REMARK  191  A    between atoms: _464  and  _465
REMARK  192  A    between atoms: _468  and  _470
REMARK  193  A    between atoms: _470  and  _471
REMARK  194  A    between atoms: _470  and  _473
REMARK  195  A    between atoms: _473  and  _474
REMARK  196  A    between atoms: _478  and  _479
REMARK  197  A    between atoms: _484  and  _486
REMARK  198  A    between atoms: _486  and  _487
REMARK  199  A    between atoms: _486  and  _489
REMARK  200  A    between atoms: _492  and  _494
REMARK  201  A    between atoms: _494  and  _495
REMARK  202  A    between atoms: _494  and  _497
REMARK  203  A    between atoms: _497  and  _498
REMARK  204  A    between atoms: _503  and  _505
REMARK  205  A    between atoms: _505  and  _506
REMARK  206  A    between atoms: _505  and  _508
REMARK  207  A    between atoms: _508  and  _509
REMARK  208  A    between atoms: _512  and  _514
REMARK  209  A    between atoms: _514  and  _515
REMARK  210  A    between atoms: _514  and  _517
REMARK  211  A    between atoms: _517  and  _518
REMARK  212  A    between atoms: _521  and  _523
REMARK  213  A    between atoms: _523  and  _524
REMARK  214  A    between atoms: _526  and  _528
REMARK  215  A    between atoms: _528  and  _529
REMARK  216  A    between atoms: _528  and  _531
REMARK  217  A    between atoms: _531  and  _532
REMARK  218  A    between atoms: _532  and  _533
REMARK  219  A    between atoms: _533  and  _534
REMARK                            x       y       z     vdW  Elec       q    Type
REMARK                         _______ _______ _______ _____ _____    ______ ____
ROOT
ATOM      1  CA  LEU A   1      25.379  15.097  12.345  0.00  0.00    +0.133 C 
ENDROOT
BRANCH   1   2
ATOM      2  N   LEU A   1      25.669  15.203  13.785  0.00  0.00    -0.239 NA
ATOM      3  H   LEU A   1      26.568  15.638  14.074  0.00  0.00    +0.142 HD
ENDBRANCH   1   2
BRANCH   1   4
ATOM      4  C   LEU A   1      26.030  13.852  11.801  0.00  0.00    +0.224 C 
ATOM      5  O   LEU A   1      27.234  13.629  12.027  0.00  0.00    -0.287 OA
ENDBRANCH   1   4
BRANCH   1   6
ATOM      6  CB  LEU A   1      25.877  16.336  11.584  0.00  0.00    +0.025 C 
BRANCH   6   7
ATOM      7  CG  LEU A   1      25.205  17.662  11.961  0.00  0.00    +0.002 C 
ATOM      8  CD2 LEU A   1      26.041  18.860  11.504  0.00  0.00    +0.000 C 
ATOM      9  CD1 LEU A   1      23.799  17.736  11.371  0.00  0.00    +0.000 C 
ENDBRANCH   6   7
ENDBRANCH   1   6
TORSDOF 4
REMARK  Name = ../refined-set-2016/2o4p/2o4p_pocket.pdb
REMARK  219 active torsions:
REMARK  status: ('A' for Active; 'I' for Inactive)
REMARK    1  A    between atoms: _1  and  _3
REMARK    2  A    between atoms: _3  and  _4
REMARK    3  A    between atoms: _3  and  _6
REMARK    4  A    between atoms: _6  and  _7
REMARK    5  A    between atoms: _7  and  _8
REMARK    6  A    between atoms: _8  and  _9
REMARK    7  A    between atoms: _18  and  _20
REMARK    8  A    between atoms: _20  and  _21
REMARK    9  A    between atoms: _20  and  _23
REMARK   10  A    between atoms: _23  and  _24
REMARK   11  A    between atoms: _27  and  _29
REMARK   12  A    between atoms: _29  and  _30
REMARK   13  A    between atoms: _29  and  _32
REMARK   14  A    between atoms: _32  and  _33
REMARK   15  A    between atoms: _36  and  _38
REMARK   16  A    between atoms: _38  and  _39
REMARK   17  A    between atoms: _38  and  _41
REMARK   18  A    between atoms: _41  and  _42
REMARK   19  A    between atoms: _45  and  _47
REMARK   20  A    between atoms: _47  and  _48
REMARK   21  A    between atoms: _47  and  _50
REMARK   22  A    between atoms: _50  and  _51
REMARK   23  A    between atoms: _54  and  _56
REMARK   24  A    between atoms: _56  and  _57
REMARK   25  A    between atoms: _56  and  _59
REMARK   26  A    between atoms: _59  and  _60
REMARK   27  A    between atoms: _63  and  _65
REMARK   28  A    between atoms: _65  and  _66
REMARK   29  A    between atoms: _68  and  _70
REMARK   30  A    between atoms: _70  and  _71
REMARK   31  A    between atoms: _74  and  _76
REMARK   32  A    between atoms: _76  and  _77
REMARK   33  A    between atoms: _76  and  _79
REMARK   34  A    between atoms: _79  and  _80
REMARK   35  A    between atoms: _83  and  _85
REMARK   36  A    between atoms: _85  and  _86
REMARK   37  A    between atoms: _85  and  _88
REMARK   38  A    between atoms: _88  and  _89
REMARK   39  A    between atoms: _92  and  _94
REMARK   40  A    between atoms: _94  and  _95
REMARK   41  A    between atoms: _94  and  _97
REMARK   42  A    between atoms: _97  and  _98
REMARK   43  A    between atoms: _101  and  _103
REMARK   44  A    between atoms: _103  and  _104
REMARK   45  A    between atoms: _103  and  _106
REMARK   46  A    between atoms: _109  and  _111
REMARK   47  A    between atoms: _111  and  _112
REMARK   48  A    between atoms: _111  and  _114
REMARK   49  A    between atoms: _114  and  _115
REMARK   50  A    between atoms: _115  and  _116
REMARK   51  A    between atoms: _116  and  _117
REMARK   52  A    between atoms: _117  and  _118
REMARK   53  A    between atoms: _122  and  _124
REMARK   54  A    between atoms: _124  and  _125
REMARK   55  A    between atoms: _124  and  _127
REMARK   56  A    between atoms: _127  and  _128
REMARK   57  A    between atoms: _128  and  _129
REMARK   58  A    between atoms: _131  and  _133
REMARK   59  A    between atoms: _133  and  _134
REMARK   60  A    between atoms: _133  and  _136
REMARK   61  A    between atoms: _136  and  _137
REMARK   62  A    between atoms: _140  and  _142
REMARK   63  A    between atoms: _142  and  _143
REMARK   64  A    between atoms: _145  and  _147
REMARK   65  A    between atoms: _147  and  _148
REMARK   66  A    between atoms: _150  and  _152
REMARK   67  A    between atoms: _152  and  _153
REMARK   68  A    between atoms: _152  and  _155
REMARK   69  A    between atoms: _155  and  _156
REMARK   70  A    between atoms: _159  and  _161
REMARK   71  A    between atoms: _161  and  _162
REMARK   72  A    between atoms: _164  and  _166
REMARK   73  A    between atoms: _166  and  _167
REMARK   74  A    between atoms: _169  and  _171
REMARK   75  A    between atoms: _171  and  _172
REMARK   76  A    between atoms: _171  and  _174
REMARK   77  A    between atoms: _174  and  _175
REMARK   78  A    between atoms: _181  and  _183
REMARK   79  A    between atoms: _183  and  _184
REMARK   80  A    between atoms: _183  and  _186
REMARK   81  A    between atoms: _186  and  _187
REMARK   82  A    between atoms: _190  and  _192
REMARK   83  A    between atoms: _192  and  _193
REMARK   84  A    between atoms: _192  and  _195
REMARK   85  A    between atoms: _195  and  _196
REMARK   86  A    between atoms: _199  and  _201
REMARK   87  A    between atoms: _201  and  _202
REMARK   88  A    between atoms: _201  and  _204
REMARK   89  A    between atoms: _204  and  _205
REMARK   90  A    between atoms: _209  and  _210
REMARK   91  A    between atoms: _215  and  _217
REMARK   92  A    between atoms: _217  and  _218
REMARK   93  A    between atoms: _217  and  _220
REMARK   94  A    between atoms: _223  and  _225
REMARK   95  A    between atoms: _225  and  _226
REMARK   96  A    between atoms: _225  and  _228
REMARK   97  A    between atoms: _228  and  _229
REMARK   98  A    between atoms: _234  and  _236
REMARK   99  A    between atoms: _236  and  _237
REMARK  100  A    between atoms: _236  and  _239
REMARK  101  A    between atoms: _239  and  _240
REMARK  102  A    between atoms: _243  and  _245
REMARK  103  A    between atoms: _245  and  _246
REMARK  104  A    between atoms: _245  and  _248
REMARK  105  A    between atoms: _248  and  _249
REMARK  106  A    between atoms: _252  and  _254
REMARK  107  A    between atoms: _254  and  _255
REMARK  108  A    between atoms: _257  and  _259
REMARK  109  A    between atoms: _259  and  _260
REMARK  110  A    between atoms: _259  and  _262
REMARK  111  A    between atoms: _262  and  _263
REMARK  112  A    between atoms: _263  and  _264
REMARK  113  A    between atoms: _264  and  _265
REMARK  114  A    between atoms: _274  and  _276
REMARK  115  A    between atoms: _276  and  _277
REMARK  116  A    between atoms: _276  and  _279
REMARK  117  A    between atoms: _279  and  _280
REMARK  118  A    between atoms: _285  and  _287
REMARK  119  A    between atoms: _287  and  _288
REMARK  120  A    between atoms: _287  and  _290
REMARK  121  A    between atoms: _290  and  _291
REMARK  122  A    between atoms: _291  and  _292
REMARK  123  A    between atoms: _292  and  _293
REMARK  124  A    between atoms: _303  and  _304
REMARK  125  A    between atoms: _309  and  _311
REMARK  126  A    between atoms: _311  and  _312
REMARK  127  A    between atoms: _311  and  _314
REMARK  128  A    between atoms: _314  and  _315
REMARK  129  A    between atoms: _318  and  _320
REMARK  130  A    between atoms: _320  and  _321
REMARK  131  A    between atoms: _320  and  _323
REMARK  132  A    between atoms: _323  and  _324
REMARK  133  A    between atoms: _327  and  _329
REMARK  134  A    between atoms: _329  and  _330
REMARK  135  A    between atoms: _329  and  _332
REMARK  136  A    between atoms: _332  and  _333
REMARK  137  A    between atoms: _336  and  _338
REMARK  138  A    between atoms: _338  and  _339
REMARK  139  A    between atoms: _338  and  _341
REMARK  140  A    between atoms: _341  and  _342
REMARK  141  A    between atoms: _345  and  _347
REMARK  142  A    between atoms: _347  and  _348
REMARK  143  A    between atoms: _347  and  _350
REMARK  144  A    between atoms: _350  and  _351
REMARK  145  A    between atoms: _354  and  _356
REMARK  146  A    between atoms: _356  and  _357
REMARK  147  A    between atoms: _359  and  _361
REMARK  148  A    between atoms: _361  and  _362
REMARK  149  A    between atoms: _365  and  _367
REMARK  150  A    between atoms: _367  and  _368
REMARK  151  A    between atoms: _367  and  _370
REMARK  152  A    between atoms: _370  and  _371
REMARK  153  A    between atoms: _374  and  _376
REMARK  154  A    between atoms: _376  and  _377
REMARK  155  A    between atoms: _376  and  _379
REMARK  156  A    between atoms: _379  and  _380
REMARK  157  A    between atoms: _383  and  _385
REMARK  158  A    between atoms: _385  and  _386
REMARK  159  A    between atoms: _385  and  _388
REMARK  160  A    between atoms: _388  and  _389
REMARK  161  A    between atoms: _392  and  _394
REMARK  162  A    between atoms: _394  and  _395
REMARK  163  A    between atoms: _394  and  _397
REMARK  164  A    between atoms: _400  and  _402
REMARK  165  A    between atoms: _402  and  _403
REMARK  166  A    between atoms: _402  and  _405
REMARK  167  A    between atoms: _405  and  _406
REMARK  168  A    between atoms: _409  and  _411
REMARK  169  A    between atoms: _411  and  _412
REMARK  170  A    between atoms: _414  and  _416
REMARK  171  A    between atoms: _416  and  _417
REMARK  172  A    between atoms: _419  and  _421
REMARK  173  A    between atoms: _421  and  _422
REMARK  174  A    between atoms: _421  and  _424
REMARK  175  A    between atoms: _424  and  _425
REMARK  176  A    between atoms: _428  and  _430
REMARK  177  A    between atoms: _430  and  _431
REMARK  178  A    between atoms: _433  and  _435
REMARK  179  A    between atoms: _435  and  _436
REMARK  180  A    between atoms: _438  and  _440
REMARK  181  A    between atoms: _440  and  _441
REMARK  182  A    between atoms: _440  and  _443
REMARK  183  A    between atoms: _443  and  _444
REMARK  184  A    between atoms: _450  and  _452
REMARK  185  A    between atoms: _452  and  _453
REMARK  186  A    between atoms: _452  and  _455
REMARK  187  A    between atoms: _455  and  _456
REMARK  188  A    between atoms: _459  and  _461
REMARK  189  A    between atoms: _461  and  _462
REMARK  190  A    between atoms: _461  and  _464
REMARK  191  A    between atoms: _464  and  _465
REMARK  192  A    between atoms: _468  and  _470
REMARK  193  A    between atoms: _470  and  _471
REMARK  194  A    between atoms: _470  and  _473
REMARK  195  A    between atoms: _473  and  _474
REMARK  196  A    between atoms: _478  and  _479
REMARK  197  A    between atoms: _484  and  _486
REMARK  198  A    between atoms: _486  and  _487
REMARK  199  A    between atoms: _486  and  _489
REMARK  200  A    between atoms: _492  and  _494
REMARK  201  A    between atoms: _494  and  _495
REMARK  202  A    between atoms: _494  and  _497
REMARK  203  A    between atoms: _497  and  _498
REMARK  204  A    between atoms: _503  and  _505
REMARK  205  A    between atoms: _505  and  _506
REMARK  206  A    between atoms: _505  and  _508
REMARK  207  A    between atoms: _508  and  _509
REMARK  208  A    between atoms: _512  and  _514
REMARK  209  A    between atoms: _514  and  _515
REMARK  210  A    between atoms: _514  and  _517
REMARK  211  A    between atoms: _517  and  _518
REMARK  212  A    between atoms: _521  and  _523
REMARK  213  A    between atoms: _523  and  _524
REMARK  214  A    between atoms: _526  and  _528
REMARK  215  A    between atoms: _528  and  _529
REMARK  216  A    between atoms: _528  and  _531
REMARK  217  A    between atoms: _531  and  _532
REMARK  218  A    between atoms: _532  and  _533
REMARK  219  A    between atoms: _533  and  _534
REMARK                            x       y       z     vdW  Elec       q    Type
REMARK                         _______ _______ _______ _____ _____    ______ ____
ROOT
ATOM      1  C   GLY A   5      12.500  14.709  19.857  0.00  0.00    +0.243 C 
ATOM      2  O   GLY A   5      11.322  15.018  20.141  0.00  0.00    -0.273 OA
ATOM      3  N   ALA A   6      12.856  14.301  18.631  0.00  0.00    -0.297 N 
ATOM      4  H   ALA A   6      13.857  14.093  18.440  0.00  0.00    +0.150 HD
ENDROOT
BRANCH   3   5
ATOM      5  CA  ALA A   6      11.880  14.139  17.551  0.00  0.00    +0.149 C 
ATOM      6  CB  ALA A   6      12.597  14.300  16.163  0.00  0.00    +0.031 C 
BRANCH   5   7
ATOM      7  C   ALA A   6      11.199  12.787  17.614  0.00  0.00    +0.241 C 
ATOM      8  N   ASP A   7       9.865  12.787  17.654  0.00  0.00    -0.297 N 
ATOM      9  H   ASP A   7       9.354  13.690  17.727  0.00  0.00    +0.150 HD
ATOM     10  O   ALA A   6      11.880  11.743  17.617  0.00  0.00    -0.273 OA
BRANCH   8  11
ATOM     11  CA  ASP A   7       9.108  11.529  17.596  0.00  0.00    +0.160 C 
BRANCH  11  12
ATOM     12  C   ASP A   7       9.383  10.872  16.234  0.00  0.00    +0.241 C 
ATOM     13  O   ASP A   7       9.531   9.653  16.130  0.00  0.00    -0.273 OA
ATOM     14  N   ASP A   8       9.402  11.718  15.197  0.00  0.00    -0.297 N 
ATOM     15  H   ASP A   8       9.418  12.738  15.400  0.00  0.00    +0.150 HD
BRANCH  14  16
ATOM     16  CA  ASP A   8       9.402  11.297  13.793  0.00  0.00    +0.160 C 
BRANCH  16  17
ATOM     17  C   ASP A   8      10.688  11.726  13.092  0.00  0.00    +0.241 C 
ATOM     18  O   ASP A   8      11.354  12.693  13.466  0.00  0.00    -0.273 OA
ATOM     19  N   THR A   9      10.965  11.035  12.003  0.00  0.00    -0.295 N 
ATOM     20  H   THR A   9      10.399  10.187  11.796  0.00  0.00    +0.150 HD
BRANCH  19  21
ATOM     21  CA  THR A   9      12.020  11.401  11.082  0.00  0.00    +0.176 C 
BRANCH  21  22
ATOM     22  C   THR A   9      11.460  12.337   9.991  0.00  0.00    +0.243 C 
ATOM     23  N   VAL A  10      12.084  13.504   9.831  0.00  0.00    -0.298 N 
ATOM     24  H   VAL A  10      12.905  13.730  10.428  0.00  0.00    +0.150 HD
ATOM     25  O   THR A   9      10.461  12.027   9.335  0.00  0.00    -0.273 OA
BRANCH  23  26
ATOM     26  CA  VAL A  10      11.631  14.480   8.824  0.00  0.00    +0.137 C 
BRANCH  26  27
ATOM     27  CB  VAL A  10      10.793  15.651   9.417  0.00  0.00    +0.026 C 
ATOM     28  CG2 VAL A  10      11.604  16.492  10.409  0.00  0.00    +0.002 C 
ATOM     29  CG1 VAL A  10      10.172  16.542   8.292  0.00  0.00    +0.002 C 
ENDBRANCH  26  27
BRANCH  26  30
ATOM     30  C   VAL A  10      12.809  14.997   8.034  0.00  0.00    +0.227 C 
ATOM     31  O   VAL A  10      13.786  15.498   8.612  0.00  0.00    -0.286 OA
ENDBRANCH  26  30
ENDBRANCH  23  26
ENDBRANCH  21  22
BRANCH  21  32
ATOM     32  CB  THR A   9      12.591  10.104  10.474  0.00  0.00    +0.137 C 
ATOM     33  CG2 THR A   9      13.594  10.416   9.369  0.00  0.00    +0.034 C 
BRANCH  32  34
ATOM     34  OG1 THR A   9      13.351   9.402  11.478  0.00  0.00    -0.382 OA
ATOM     35  HG1 THR A   9      12.761   9.179  12.241  0.00  0.00    +0.210 HD
ENDBRANCH  32  34
ENDBRANCH  21  32
ENDBRANCH  19  21
ENDBRANCH  16  17
BRANCH  16  36
ATOM     36  CB  ASP A   8       8.269  12.000  13.022  0.00  0.00    +0.143 C 
BRANCH  36  37
ATOM     37  CG  ASP A   8       6.895  11.747  13.604  0.00  0.00    +0.367 C 
ATOM     38  OD2 ASP A   8       6.666  10.621  14.121  0.00  0.00    -0.246 OA
ATOM     39  OD1 ASP A   8       5.972  12.615  13.559  0.00  0.00    -0.246 OA
ENDBRANCH  36  37
ENDBRANCH  16  36
ENDBRANCH  14  16
ENDBRANCH  11  12
BRANCH  11  40
ATOM     40  CB  ASP A   7       7.604  11.817  17.585  0.00  0.00    +0.143 C 
BRANCH  40  41
ATOM     41  CG  ASP A   7       7.049  12.293  18.919  0.00  0.00    +0.367 C 
ATOM     42  OD2 ASP A   7       7.695  12.133  19.995  0.00  0.00    -0.246 OA
ATOM     43  OD1 ASP A   7       5.904  12.816  18.948  0.00  0.00    -0.246 OA
ENDBRANCH  40  41
ENDBRANCH  11  40
ENDBRANCH   8  11
ENDBRANCH   5   7
ENDBRANCH   3   5
BRANCH   1  44
ATOM     44  CA  GLY A   5      13.595  14.812  20.923  0.00  0.00    +0.176 C 
BRANCH  44  47
ATOM     45  C   THR A   4      14.978  12.769  20.908  0.00  0.00    +0.243 C 
ATOM     46  O   THR A   4      14.087  12.069  21.406  0.00  0.00    -0.273 OA
ATOM     47  N   GLY A   5      14.859  14.082  20.701  0.00  0.00    -0.295 N 
ATOM     48  H   GLY A   5      15.690  14.612  20.370  0.00  0.00    +0.150 HD
BRANCH  45  49
ATOM     49  CA  THR A   4      16.307  12.112  20.485  0.00  0.00    +0.176 C 
BRANCH  49  51
ATOM     50  C   ASP A   3      16.613  13.136  18.269  0.00  0.00    +0.241 C 
ATOM     51  N   THR A   4      17.045  12.942  19.526  0.00  0.00    -0.295 N 
ATOM     52  H   THR A   4      17.931  13.395  19.829  0.00  0.00    +0.150 HD
ATOM     53  O   ASP A   3      15.542  12.678  17.833  0.00  0.00    -0.273 OA
BRANCH  50  54
ATOM     54  CA  ASP A   3      17.498  14.005  17.395  0.00  0.00    +0.160 C 
BRANCH  54  57
ATOM     55  C   LEU A   2      19.604  13.312  16.421  0.00  0.00    +0.241 C 
ATOM     56  O   LEU A   2      20.232  13.990  17.231  0.00  0.00    -0.273 OA
ATOM     57  N   ASP A   3      18.282  13.192  16.480  0.00  0.00    -0.297 N 
ATOM     58  H   ASP A   3      17.801  12.507  15.863  0.00  0.00    +0.150 HD
BRANCH  55  59
ATOM     59  CA  LEU A   2      20.301  12.597  15.272  0.00  0.00    +0.149 C 
BRANCH  59  61
ATOM     60  C   LEU A   1      20.121  14.213  13.469  0.00  0.00    +0.238 C 
ATOM     61  N   LEU A   2      20.890  13.550  14.318  0.00  0.00    -0.297 N 
ATOM     62  H   LEU A   2      21.919  13.704  14.311  0.00  0.00    +0.150 HD
ATOM     63  O   LEU A   1      18.914  13.973  13.364  0.00  0.00    -0.274 OA
BRANCH  60  64
ATOM     64  CA  LEU A   1      20.785  15.320  12.654  0.00  0.00    +0.145 C 
BRANCH  64  65
ATOM     65  N   LEU A   1      20.651  15.025  11.210  0.00  0.00    -0.238 NA
ATOM     66  H   LEU A   1      19.781  15.333  10.730  0.00  0.00    +0.142 HD
ENDBRANCH  64  65
BRANCH  64  67
ATOM     67  CB  LEU A   1      20.109  16.674  12.961  0.00  0.00    +0.026 C 
BRANCH  67  68
ATOM     68  CG  LEU A   1      20.256  17.256  14.369  0.00  0.00    +0.002 C 
ATOM     69  CD2 LEU A   1      21.731  17.531  14.730  0.00  0.00    +0.000 C 
ATOM     70  CD1 LEU A   1      19.378  18.545  14.513  0.00  0.00    +0.000 C 
ENDBRANCH  67  68
ENDBRANCH  64  67
ENDBRANCH  60  64
ENDBRANCH  59  61
BRANCH  59  71
ATOM     71  CB  LEU A   2      21.357  11.619  15.799  0.00  0.00    +0.029 C 
BRANCH  71  72
ATOM     72  CG  LEU A   2      22.160  10.868  14.720  0.00  0.00    +0.002 C 
ATOM     73  CD2 LEU A   2      23.119   9.877  15.377  0.00  0.00    +0.000 C 
ATOM     74  CD1 LEU A   2      21.244  10.141  13.770  0.00  0.00    +0.000 C 
ENDBRANCH  71  72
ENDBRANCH  59  71
ENDBRANCH  55  59
ENDBRANCH  54  57
BRANCH  54  75
ATOM     75  CB  ASP A   3      16.675  14.983  16.552  0.00  0.00    +0.143 C 
BRANCH  75  76
ATOM     76  CG  ASP A   3      15.843  15.970  17.386  0.00  0.00    +0.367 C 
ATOM     77  OD2 ASP A   3      15.705  15.858  18.633  0.00  0.00    -0.246 OA
ATOM     78  OD1 ASP A   3      15.324  16.958  16.838  0.00  0.00    -0.246 OA
ENDBRANCH  75  76
ENDBRANCH  54  75
ENDBRANCH  50  54
ENDBRANCH  49  51
BRANCH  49  79
ATOM     79  CB  THR A   4      17.116  11.874  21.732  0.00  0.00    +0.137 C 
ATOM     80  CG2 THR A   4      18.446  11.118  21.403  0.00  0.00    +0.034 C 
BRANCH  79  81
ATOM     81  OG1 THR A   4      17.550  13.159  22.212  0.00  0.00    -0.382 OA
ATOM     82  HG1 THR A   4      16.759  13.720  22.412  0.00  0.00    +0.210 HD
ENDBRANCH  79  81
ENDBRANCH  49  79
ENDBRANCH  45  49
ENDBRANCH  44  47
ENDBRANCH   1  44
TORSDOF 35
REMARK  Name = ../refined-set-2016/2o4p/2o4p_pocket.pdb
REMARK  219 active torsions:
REMARK  status: ('A' for Active; 'I' for Inactive)
REMARK    1  A    between atoms: _1  and  _3
REMARK    2  A    between atoms: _3  and  _4
REMARK    3  A    between atoms: _3  and  _6
REMARK    4  A    between atoms: _6  and  _7
REMARK    5  A    between atoms: _7  and  _8
REMARK    6  A    between atoms: _8  and  _9
REMARK    7  A    between atoms: _18  and  _20
REMARK    8  A    between atoms: _20  and  _21
REMARK    9  A    between atoms: _20  and  _23
REMARK   10  A    between atoms: _23  and  _24
REMARK   11  A    between atoms: _27  and  _29
REMARK   12  A    between atoms: _29  and  _30
REMARK   13  A    between atoms: _29  and  _32
REMARK   14  A    between atoms: _32  and  _33
REMARK   15  A    between atoms: _36  and  _38
REMARK   16  A    between atoms: _38  and  _39
REMARK   17  A    between atoms: _38  and  _41
REMARK   18  A    between atoms: _41  and  _42
REMARK   19  A    between atoms: _45  and  _47
REMARK   20  A    between atoms: _47  and  _48
REMARK   21  A    between atoms: _47  and  _50
REMARK   22  A    between atoms: _50  and  _51
REMARK   23  A    between atoms: _54  and  _56
REMARK   24  A    between atoms: _56  and  _57
REMARK   25  A    between atoms: _56  and  _59
REMARK   26  A    between atoms: _59  and  _60
REMARK   27  A    between atoms: _63  and  _65
REMARK   28  A    between atoms: _65  and  _66
REMARK   29  A    between atoms: _68  and  _70
REMARK   30  A    between atoms: _70  and  _71
REMARK   31  A    between atoms: _74  and  _76
REMARK   32  A    between atoms: _76  and  _77
REMARK   33  A    between atoms: _76  and  _79
REMARK   34  A    between atoms: _79  and  _80
REMARK   35  A    between atoms: _83  and  _85
REMARK   36  A    between atoms: _85  and  _86
REMARK   37  A    between atoms: _85  and  _88
REMARK   38  A    between atoms: _88  and  _89
REMARK   39  A    between atoms: _92  and  _94
REMARK   40  A    between atoms: _94  and  _95
REMARK   41  A    between atoms: _94  and  _97
REMARK   42  A    between atoms: _97  and  _98
REMARK   43  A    between atoms: _101  and  _103
REMARK   44  A    between atoms: _103  and  _104
REMARK   45  A    between atoms: _103  and  _106
REMARK   46  A    between atoms: _109  and  _111
REMARK   47  A    between atoms: _111  and  _112
REMARK   48  A    between atoms: _111  and  _114
REMARK   49  A    between atoms: _114  and  _115
REMARK   50  A    between atoms: _115  and  _116
REMARK   51  A    between atoms: _116  and  _117
REMARK   52  A    between atoms: _117  and  _118
REMARK   53  A    between atoms: _122  and  _124
REMARK   54  A    between atoms: _124  and  _125
REMARK   55  A    between atoms: _124  and  _127
REMARK   56  A    between atoms: _127  and  _128
REMARK   57  A    between atoms: _128  and  _129
REMARK   58  A    between atoms: _131  and  _133
REMARK   59  A    between atoms: _133  and  _134
REMARK   60  A    between atoms: _133  and  _136
REMARK   61  A    between atoms: _136  and  _137
REMARK   62  A    between atoms: _140  and  _142
REMARK   63  A    between atoms: _142  and  _143
REMARK   64  A    between atoms: _145  and  _147
REMARK   65  A    between atoms: _147  and  _148
REMARK   66  A    between atoms: _150  and  _152
REMARK   67  A    between atoms: _152  and  _153
REMARK   68  A    between atoms: _152  and  _155
REMARK   69  A    between atoms: _155  and  _156
REMARK   70  A    between atoms: _159  and  _161
REMARK   71  A    between atoms: _161  and  _162
REMARK   72  A    between atoms: _164  and  _166
REMARK   73  A    between atoms: _166  and  _167
REMARK   74  A    between atoms: _169  and  _171
REMARK   75  A    between atoms: _171  and  _172
REMARK   76  A    between atoms: _171  and  _174
REMARK   77  A    between atoms: _174  and  _175
REMARK   78  A    between atoms: _181  and  _183
REMARK   79  A    between atoms: _183  and  _184
REMARK   80  A    between atoms: _183  and  _186
REMARK   81  A    between atoms: _186  and  _187
REMARK   82  A    between atoms: _190  and  _192
REMARK   83  A    between atoms: _192  and  _193
REMARK   84  A    between atoms: _192  and  _195
REMARK   85  A    between atoms: _195  and  _196
REMARK   86  A    between atoms: _199  and  _201
REMARK   87  A    between atoms: _201  and  _202
REMARK   88  A    between atoms: _201  and  _204
REMARK   89  A    between atoms: _204  and  _205
REMARK   90  A    between atoms: _209  and  _210
REMARK   91  A    between atoms: _215  and  _217
REMARK   92  A    between atoms: _217  and  _218
REMARK   93  A    between atoms: _217  and  _220
REMARK   94  A    between atoms: _223  and  _225
REMARK   95  A    between atoms: _225  and  _226
REMARK   96  A    between atoms: _225  and  _228
REMARK   97  A    between atoms: _228  and  _229
REMARK   98  A    between atoms: _234  and  _236
REMARK   99  A    between atoms: _236  and  _237
REMARK  100  A    between atoms: _236  and  _239
REMARK  101  A    between atoms: _239  and  _240
REMARK  102  A    between atoms: _243  and  _245
REMARK  103  A    between atoms: _245  and  _246
REMARK  104  A    between atoms: _245  and  _248
REMARK  105  A    between atoms: _248  and  _249
REMARK  106  A    between atoms: _252  and  _254
REMARK  107  A    between atoms: _254  and  _255
REMARK  108  A    between atoms: _257  and  _259
REMARK  109  A    between atoms: _259  and  _260
REMARK  110  A    between atoms: _259  and  _262
REMARK  111  A    between atoms: _262  and  _263
REMARK  112  A    between atoms: _263  and  _264
REMARK  113  A    between atoms: _264  and  _265
REMARK  114  A    between atoms: _274  and  _276
REMARK  115  A    between atoms: _276  and  _277
REMARK  116  A    between atoms: _276  and  _279
REMARK  117  A    between atoms: _279  and  _280
REMARK  118  A    between atoms: _285  and  _287
REMARK  119  A    between atoms: _287  and  _288
REMARK  120  A    between atoms: _287  and  _290
REMARK  121  A    between atoms: _290  and  _291
REMARK  122  A    between atoms: _291  and  _292
REMARK  123  A    between atoms: _292  and  _293
REMARK  124  A    between atoms: _303  and  _304
REMARK  125  A    between atoms: _309  and  _311
REMARK  126  A    between atoms: _311  and  _312
REMARK  127  A    between atoms: _311  and  _314
REMARK  128  A    between atoms: _314  and  _315
REMARK  129  A    between atoms: _318  and  _320
REMARK  130  A    between atoms: _320  and  _321
REMARK  131  A    between atoms: _320  and  _323
REMARK  132  A    between atoms: _323  and  _324
REMARK  133  A    between atoms: _327  and  _329
REMARK  134  A    between atoms: _329  and  _330
REMARK  135  A    between atoms: _329  and  _332
REMARK  136  A    between atoms: _332  and  _333
REMARK  137  A    between atoms: _336  and  _338
REMARK  138  A    between atoms: _338  and  _339
REMARK  139  A    between atoms: _338  and  _341
REMARK  140  A    between atoms: _341  and  _342
REMARK  141  A    between atoms: _345  and  _347
REMARK  142  A    between atoms: _347  and  _348
REMARK  143  A    between atoms: _347  and  _350
REMARK  144  A    between atoms: _350  and  _351
REMARK  145  A    between atoms: _354  and  _356
REMARK  146  A    between atoms: _356  and  _357
REMARK  147  A    between atoms: _359  and  _361
REMARK  148  A    between atoms: _361  and  _362
REMARK  149  A    between atoms: _365  and  _367
REMARK  150  A    between atoms: _367  and  _368
REMARK  151  A    between atoms: _367  and  _370
REMARK  152  A    between atoms: _370  and  _371
REMARK  153  A    between atoms: _374  and  _376
REMARK  154  A    between atoms: _376  and  _377
REMARK  155  A    between atoms: _376  and  _379
REMARK  156  A    between atoms: _379  and  _380
REMARK  157  A    between atoms: _383  and  _385
REMARK  158  A    between atoms: _385  and  _386
REMARK  159  A    between atoms: _385  and  _388
REMARK  160  A    between atoms: _388  and  _389
REMARK  161  A    between atoms: _392  and  _394
REMARK  162  A    between atoms: _394  and  _395
REMARK  163  A    between atoms: _394  and  _397
REMARK  164  A    between atoms: _400  and  _402
REMARK  165  A    between atoms: _402  and  _403
REMARK  166  A    between atoms: _402  and  _405
REMARK  167  A    between atoms: _405  and  _406
REMARK  168  A    between atoms: _409  and  _411
REMARK  169  A    between atoms: _411  and  _412
REMARK  170  A    between atoms: _414  and  _416
REMARK  171  A    between atoms: _416  and  _417
REMARK  172  A    between atoms: _419  and  _421
REMARK  173  A    between atoms: _421  and  _422
REMARK  174  A    between atoms: _421  and  _424
REMARK  175  A    between atoms: _424  and  _425
REMARK  176  A    between atoms: _428  and  _430
REMARK  177  A    between atoms: _430  and  _431
REMARK  178  A    between atoms: _433  and  _435
REMARK  179  A    between atoms: _435  and  _436
REMARK  180  A    between atoms: _438  and  _440
REMARK  181  A    between atoms: _440  and  _441
REMARK  182  A    between atoms: _440  and  _443
REMARK  183  A    between atoms: _443  and  _444
REMARK  184  A    between atoms: _450  and  _452
REMARK  185  A    between atoms: _452  and  _453
REMARK  186  A    between atoms: _452  and  _455
REMARK  187  A    between atoms: _455  and  _456
REMARK  188  A    between atoms: _459  and  _461
REMARK  189  A    between atoms: _461  and  _462
REMARK  190  A    between atoms: _461  and  _464
REMARK  191  A    between atoms: _464  and  _465
REMARK  192  A    between atoms: _468  and  _470
REMARK  193  A    between atoms: _470  and  _471
REMARK  194  A    between atoms: _470  and  _473
REMARK  195  A    between atoms: _473  and  _474
REMARK  196  A    between atoms: _478  and  _479
REMARK  197  A    between atoms: _484  and  _486
REMARK  198  A    between atoms: _486  and  _487
REMARK  199  A    between atoms: _486  and  _489
REMARK  200  A    between atoms: _492  and  _494
REMARK  201  A    between atoms: _494  and  _495
REMARK  202  A    between atoms: _494  and  _497
REMARK  203  A    between atoms: _497  and  _498
REMARK  204  A    between atoms: _503  and  _505
REMARK  205  A    between atoms: _505  and  _506
REMARK  206  A    between atoms: _505  and  _508
REMARK  207  A    between atoms: _508  and  _509
REMARK  208  A    between atoms: _512  and  _514
REMARK  209  A    between atoms: _514  and  _515
REMARK  210  A    between atoms: _514  and  _517
REMARK  211  A    between atoms: _517  and  _518
REMARK  212  A    between atoms: _521  and  _523
REMARK  213  A    between atoms: _523  and  _524
REMARK  214  A    between atoms: _526  and  _528
REMARK  215  A    between atoms: _528  and  _529
REMARK  216  A    between atoms: _528  and  _531
REMARK  217  A    between atoms: _531  and  _532
REMARK  218  A    between atoms: _532  and  _533
REMARK  219  A    between atoms: _533  and  _534
REMARK                            x       y       z     vdW  Elec       q    Type
REMARK                         _______ _______ _______ _____ _____    ______ ____
ROOT
ATOM      1  C   GLY A   5       8.104  23.021  17.382  0.00  0.00    +0.243 C 
ATOM      2  N   ILE A   6       9.349  23.432  17.599  0.00  0.00    -0.297 N 
ATOM      3  H   ILE A   6      10.130  22.751  17.512  0.00  0.00    +0.150 HD
ATOM      4  O   GLY A   5       7.109  23.743  17.576  0.00  0.00    -0.273 OA
ENDROOT
BRANCH   2   5
ATOM      5  CA  ILE A   6       9.647  24.808  17.955  0.00  0.00    +0.149 C 
BRANCH   5   6
ATOM      6  C   ILE A   6       9.272  25.659  16.753  0.00  0.00    +0.241 C 
ATOM      7  N   GLY A   7       8.492  26.697  16.999  0.00  0.00    -0.295 N 
ATOM      8  H   GLY A   7       8.170  26.885  17.970  0.00  0.00    +0.150 HD
ATOM      9  O   ILE A   6       9.690  25.371  15.613  0.00  0.00    -0.273 OA
BRANCH   7  10
ATOM     10  CA  GLY A   7       8.081  27.579  15.913  0.00  0.00    +0.176 C 
BRANCH  10  11
ATOM     11  C   GLY A   7       6.688  27.264  15.415  0.00  0.00    +0.243 C 
ATOM     12  N   GLY A   8       6.114  26.156  15.877  0.00  0.00    -0.295 N 
ATOM     13  H   GLY A   8       6.615  25.578  16.582  0.00  0.00    +0.150 HD
ATOM     14  O   GLY A   7       6.142  28.014  14.588  0.00  0.00    -0.273 OA
BRANCH  12  15
ATOM     15  CA  GLY A   8       4.787  25.733  15.412  0.00  0.00    +0.176 C 
BRANCH  15  16
ATOM     16  C   GLY A   8       4.783  24.539  14.456  0.00  0.00    +0.243 C 
ATOM     17  O   GLY A   8       5.654  23.671  14.517  0.00  0.00    -0.273 OA
ATOM     18  N   PHE A   9       3.815  24.519  13.546  0.00  0.00    -0.297 N 
ATOM     19  H   PHE A   9       3.233  25.369  13.402  0.00  0.00    +0.150 HD
BRANCH  18  20
ATOM     20  CA  PHE A   9       3.552  23.326  12.744  0.00  0.00    +0.153 C 
BRANCH  20  21
ATOM     21  C   PHE A   9       3.984  23.492  11.293  0.00  0.00    +0.241 C 
ATOM     22  O   PHE A   9       3.915  24.596  10.748  0.00  0.00    -0.273 OA
ATOM     23  N   ILE A  10       4.388  22.382  10.664  0.00  0.00    -0.298 N 
ATOM     24  H   ILE A  10       4.563  21.520  11.219  0.00  0.00    +0.150 HD
BRANCH  23  25
ATOM     25  CA  ILE A  10       4.591  22.349   9.205  0.00  0.00    +0.137 C 
BRANCH  25  26
ATOM     26  C   ILE A  10       3.826  21.178   8.585  0.00  0.00    +0.227 C 
ATOM     27  O   ILE A  10       3.582  20.160   9.241  0.00  0.00    -0.286 OA
ENDBRANCH  25  26
BRANCH  25  28
ATOM     28  CB  ILE A  10       6.120  22.273   8.811  0.00  0.00    +0.026 C 
ATOM     29  CG2 ILE A  10       6.779  23.572   9.122  0.00  0.00    +0.002 C 
BRANCH  28  30
ATOM     30  CG1 ILE A  10       6.818  21.079   9.490  0.00  0.00    +0.002 C 
ATOM     31  CD1 ILE A  10       8.231  20.684   8.901  0.00  0.00    +0.000 C 
ENDBRANCH  28  30
ENDBRANCH  25  28
ENDBRANCH  23  25
ENDBRANCH  20  21
BRANCH  20  32
ATOM     32  CB  PHE A   9       2.057  22.960  12.790  0.00  0.00    +0.055 C 
BRANCH  32  33
ATOM     33  CG  PHE A   9       1.654  22.251  14.036  0.00  0.00    -0.020 A 
ATOM     34  CD2 PHE A   9       1.452  22.962  15.218  0.00  0.00    -0.004 A 
ATOM     35  CE2 PHE A   9       1.086  22.296  16.406  0.00  0.00    -0.000 A 
ATOM     36  CZ  PHE A   9       0.924  20.941  16.393  0.00  0.00    -0.000 A 
ATOM     37  CE1 PHE A   9       1.135  20.227  15.204  0.00  0.00    -0.000 A 
ATOM     38  CD1 PHE A   9       1.487  20.887  14.043  0.00  0.00    -0.004 A 
ENDBRANCH  32  33
ENDBRANCH  20  32
ENDBRANCH  18  20
ENDBRANCH  15  16
ENDBRANCH  12  15
ENDBRANCH  10  11
ENDBRANCH   7  10
ENDBRANCH   5   6
BRANCH   5  39
ATOM     39  CB  ILE A   6      11.173  24.954  18.290  0.00  0.00    +0.027 C 
ATOM     40  CG2 ILE A   6      11.682  26.410  18.142  0.00  0.00    +0.002 C 
BRANCH  39  41
ATOM     41  CG1 ILE A   6      11.468  24.398  19.700  0.00  0.00    +0.002 C 
ATOM     42  CD1 ILE A   6      10.810  25.186  20.828  0.00  0.00    +0.000 C 
ENDBRANCH  39  41
ENDBRANCH   5  39
ENDBRANCH   2   5
BRANCH   1  43
ATOM     43  CA  GLY A   5       7.953  21.602  16.866  0.00  0.00    +0.176 C 
BRANCH  43  46
ATOM     44  C   GLY A   4       6.050  20.320  16.030  0.00  0.00    +0.243 C 
ATOM     45  O   GLY A   4       6.554  19.238  16.279  0.00  0.00    -0.273 OA
ATOM     46  N   GLY A   5       6.691  21.472  16.177  0.00  0.00    -0.295 N 
ATOM     47  H   GLY A   5       6.261  22.329  15.774  0.00  0.00    +0.150 HD
BRANCH  44  48
ATOM     48  CA  GLY A   4       4.640  20.409  15.491  0.00  0.00    +0.176 C 
BRANCH  48  50
ATOM     49  C   ILE A   3       4.256  19.258  13.351  0.00  0.00    +0.241 C 
ATOM     50  N   GLY A   4       4.267  19.240  14.688  0.00  0.00    -0.295 N 
ATOM     51  H   GLY A   4       4.000  18.362  15.178  0.00  0.00    +0.150 HD
ATOM     52  O   ILE A   3       4.466  20.272  12.676  0.00  0.00    -0.273 OA
BRANCH  49  53
ATOM     53  CA  ILE A   3       3.842  17.966  12.660  0.00  0.00    +0.149 C 
BRANCH  53  56
ATOM     54  C   MET A   2       1.819  17.710  11.362  0.00  0.00    +0.241 C 
ATOM     55  O   MET A   2       1.370  16.908  12.178  0.00  0.00    -0.273 OA
ATOM     56  N   ILE A   3       3.024  18.253  11.492  0.00  0.00    -0.297 N 
ATOM     57  H   ILE A   3       3.386  18.889  10.753  0.00  0.00    +0.150 HD
BRANCH  54  58
ATOM     58  CA  MET A   2       0.997  18.117  10.158  0.00  0.00    +0.149 C 
BRANCH  58  60
ATOM     59  C   LYS A   1       0.919  16.502   8.329  0.00  0.00    +0.238 C 
ATOM     60  N   MET A   2       0.520  16.889   9.530  0.00  0.00    -0.297 N 
ATOM     61  H   MET A   2      -0.160  16.295  10.046  0.00  0.00    +0.150 HD
ATOM     62  O   LYS A   1       1.590  17.214   7.572  0.00  0.00    -0.274 OA
BRANCH  59  63
ATOM     63  CA  LYS A   1       0.457  15.127   7.890  0.00  0.00    +0.145 C 
BRANCH  63  64
ATOM     64  N   LYS A   1       0.390  15.168   6.446  0.00  0.00    -0.238 NA
ATOM     65  H   LYS A   1       1.057  15.783   5.938  0.00  0.00    +0.142 HD
ENDBRANCH  63  64
BRANCH  63  66
ATOM     66  CB  LYS A   1       1.457  14.041   8.322  0.00  0.00    +0.026 C 
BRANCH  66  67
ATOM     67  CG  LYS A   1       1.519  13.708   9.822  0.00  0.00    -0.000 C 
BRANCH  67  68
ATOM     68  CD  LYS A   1       2.614  12.648   9.997  0.00  0.00    -0.024 C 
BRANCH  68  69
ATOM     69  CE  LYS A   1       3.043  12.476  11.457  0.00  0.00    -0.086 C 
BRANCH  69  70
ATOM     70  NZ  LYS A   1       1.932  12.114  12.341  0.00  0.00    +0.380 N 
ATOM     71  HZ1 LYS A   1       2.284  12.012  13.314  0.00  0.00    -0.089 HD
ATOM     72  HZ2 LYS A   1       1.208  12.860  12.309  0.00  0.00    -0.089 HD
ATOM     73  HZ3 LYS A   1       1.518  11.214  12.025  0.00  0.00    -0.089 HD
ENDBRANCH  69  70
ENDBRANCH  68  69
ENDBRANCH  67  68
ENDBRANCH  66  67
ENDBRANCH  63  66
ENDBRANCH  59  63
ENDBRANCH  58  60
BRANCH  58  74
ATOM     74  CB  MET A   2      -0.180  18.978  10.617  0.00  0.00    +0.041 C 
BRANCH  74  75
ATOM     75  CG  MET A   2      -0.927  19.651   9.496  0.00  0.00    +0.060 C 
BRANCH  75  76
ATOM     76  SD  MET A   2      -0.031  21.102   8.923  0.00  0.00    -0.139 S 
ATOM     77  CE  MET A   2      -0.407  22.304  10.230  0.00  0.00    +0.069 C 
ENDBRANCH  75  76
ENDBRANCH  74  75
ENDBRANCH  58  74
ENDBRANCH  54  58
ENDBRANCH  53  56
BRANCH  53  78
ATOM     78  CB  ILE A   3       5.062  17.063  12.292  0.00  0.00    +0.027 C 
ATOM     79  CG2 ILE A   3       4.575  15.712  11.768  0.00  0.00    +0.002 C 
BRANCH  78  80
ATOM     80  CG1 ILE A   3       6.029  17.777  11.326  0.00  0.00    +0.002 C 
ATOM     81  CD1 ILE A   3       7.397  17.021  11.162  0.00  0.00    +0.000 C 
ENDBRANCH  78  80
ENDBRANCH  53  78
ENDBRANCH  49  53
ENDBRANCH  48  50
ENDBRANCH  44  48
ENDBRANCH  43  46
ENDBRANCH   1  43
TORSDOF 36
REMARK  Name = ../refined-set-2016/2o4p/2o4p_pocket.pdb
REMARK  219 active torsions:
REMARK  status: ('A' for Active; 'I' for Inactive)
REMARK    1  A    between atoms: _1  and  _3
REMARK    2  A    between atoms: _3  and  _4
REMARK    3  A    between atoms: _3  and  _6
REMARK    4  A    between atoms: _6  and  _7
REMARK    5  A    between atoms: _7  and  _8
REMARK    6  A    between atoms: _8  and  _9
REMARK    7  A    between atoms: _18  and  _20
REMARK    8  A    between atoms: _20  and  _21
REMARK    9  A    between atoms: _20  and  _23
REMARK   10  A    between atoms: _23  and  _24
REMARK   11  A    between atoms: _27  and  _29
REMARK   12  A    between atoms: _29  and  _30
REMARK   13  A    between atoms: _29  and  _32
REMARK   14  A    between atoms: _32  and  _33
REMARK   15  A    between atoms: _36  and  _38
REMARK   16  A    between atoms: _38  and  _39
REMARK   17  A    between atoms: _38  and  _41
REMARK   18  A    between atoms: _41  and  _42
REMARK   19  A    between atoms: _45  and  _47
REMARK   20  A    between atoms: _47  and  _48
REMARK   21  A    between atoms: _47  and  _50
REMARK   22  A    between atoms: _50  and  _51
REMARK   23  A    between atoms: _54  and  _56
REMARK   24  A    between atoms: _56  and  _57
REMARK   25  A    between atoms: _56  and  _59
REMARK   26  A    between atoms: _59  and  _60
REMARK   27  A    between atoms: _63  and  _65
REMARK   28  A    between atoms: _65  and  _66
REMARK   29  A    between atoms: _68  and  _70
REMARK   30  A    between atoms: _70  and  _71
REMARK   31  A    between atoms: _74  and  _76
REMARK   32  A    between atoms: _76  and  _77
REMARK   33  A    between atoms: _76  and  _79
REMARK   34  A    between atoms: _79  and  _80
REMARK   35  A    between atoms: _83  and  _85
REMARK   36  A    between atoms: _85  and  _86
REMARK   37  A    between atoms: _85  and  _88
REMARK   38  A    between atoms: _88  and  _89
REMARK   39  A    between atoms: _92  and  _94
REMARK   40  A    between atoms: _94  and  _95
REMARK   41  A    between atoms: _94  and  _97
REMARK   42  A    between atoms: _97  and  _98
REMARK   43  A    between atoms: _101  and  _103
REMARK   44  A    between atoms: _103  and  _104
REMARK   45  A    between atoms: _103  and  _106
REMARK   46  A    between atoms: _109  and  _111
REMARK   47  A    between atoms: _111  and  _112
REMARK   48  A    between atoms: _111  and  _114
REMARK   49  A    between atoms: _114  and  _115
REMARK   50  A    between atoms: _115  and  _116
REMARK   51  A    between atoms: _116  and  _117
REMARK   52  A    between atoms: _117  and  _118
REMARK   53  A    between atoms: _122  and  _124
REMARK   54  A    between atoms: _124  and  _125
REMARK   55  A    between atoms: _124  and  _127
REMARK   56  A    between atoms: _127  and  _128
REMARK   57  A    between atoms: _128  and  _129
REMARK   58  A    between atoms: _131  and  _133
REMARK   59  A    between atoms: _133  and  _134
REMARK   60  A    between atoms: _133  and  _136
REMARK   61  A    between atoms: _136  and  _137
REMARK   62  A    between atoms: _140  and  _142
REMARK   63  A    between atoms: _142  and  _143
REMARK   64  A    between atoms: _145  and  _147
REMARK   65  A    between atoms: _147  and  _148
REMARK   66  A    between atoms: _150  and  _152
REMARK   67  A    between atoms: _152  and  _153
REMARK   68  A    between atoms: _152  and  _155
REMARK   69  A    between atoms: _155  and  _156
REMARK   70  A    between atoms: _159  and  _161
REMARK   71  A    between atoms: _161  and  _162
REMARK   72  A    between atoms: _164  and  _166
REMARK   73  A    between atoms: _166  and  _167
REMARK   74  A    between atoms: _169  and  _171
REMARK   75  A    between atoms: _171  and  _172
REMARK   76  A    between atoms: _171  and  _174
REMARK   77  A    between atoms: _174  and  _175
REMARK   78  A    between atoms: _181  and  _183
REMARK   79  A    between atoms: _183  and  _184
REMARK   80  A    between atoms: _183  and  _186
REMARK   81  A    between atoms: _186  and  _187
REMARK   82  A    between atoms: _190  and  _192
REMARK   83  A    between atoms: _192  and  _193
REMARK   84  A    between atoms: _192  and  _195
REMARK   85  A    between atoms: _195  and  _196
REMARK   86  A    between atoms: _199  and  _201
REMARK   87  A    between atoms: _201  and  _202
REMARK   88  A    between atoms: _201  and  _204
REMARK   89  A    between atoms: _204  and  _205
REMARK   90  A    between atoms: _209  and  _210
REMARK   91  A    between atoms: _215  and  _217
REMARK   92  A    between atoms: _217  and  _218
REMARK   93  A    between atoms: _217  and  _220
REMARK   94  A    between atoms: _223  and  _225
REMARK   95  A    between atoms: _225  and  _226
REMARK   96  A    between atoms: _225  and  _228
REMARK   97  A    between atoms: _228  and  _229
REMARK   98  A    between atoms: _234  and  _236
REMARK   99  A    between atoms: _236  and  _237
REMARK  100  A    between atoms: _236  and  _239
REMARK  101  A    between atoms: _239  and  _240
REMARK  102  A    between atoms: _243  and  _245
REMARK  103  A    between atoms: _245  and  _246
REMARK  104  A    between atoms: _245  and  _248
REMARK  105  A    between atoms: _248  and  _249
REMARK  106  A    between atoms: _252  and  _254
REMARK  107  A    between atoms: _254  and  _255
REMARK  108  A    between atoms: _257  and  _259
REMARK  109  A    between atoms: _259  and  _260
REMARK  110  A    between atoms: _259  and  _262
REMARK  111  A    between atoms: _262  and  _263
REMARK  112  A    between atoms: _263  and  _264
REMARK  113  A    between atoms: _264  and  _265
REMARK  114  A    between atoms: _274  and  _276
REMARK  115  A    between atoms: _276  and  _277
REMARK  116  A    between atoms: _276  and  _279
REMARK  117  A    between atoms: _279  and  _280
REMARK  118  A    between atoms: _285  and  _287
REMARK  119  A    between atoms: _287  and  _288
REMARK  120  A    between atoms: _287  and  _290
REMARK  121  A    between atoms: _290  and  _291
REMARK  122  A    between atoms: _291  and  _292
REMARK  123  A    between atoms: _292  and  _293
REMARK  124  A    between atoms: _303  and  _304
REMARK  125  A    between atoms: _309  and  _311
REMARK  126  A    between atoms: _311  and  _312
REMARK  127  A    between atoms: _311  and  _314
REMARK  128  A    between atoms: _314  and  _315
REMARK  129  A    between atoms: _318  and  _320
REMARK  130  A    between atoms: _320  and  _321
REMARK  131  A    between atoms: _320  and  _323
REMARK  132  A    between atoms: _323  and  _324
REMARK  133  A    between atoms: _327  and  _329
REMARK  134  A    between atoms: _329  and  _330
REMARK  135  A    between atoms: _329  and  _332
REMARK  136  A    between atoms: _332  and  _333
REMARK  137  A    between atoms: _336  and  _338
REMARK  138  A    between atoms: _338  and  _339
REMARK  139  A    between atoms: _338  and  _341
REMARK  140  A    between atoms: _341  and  _342
REMARK  141  A    between atoms: _345  and  _347
REMARK  142  A    between atoms: _347  and  _348
REMARK  143  A    between atoms: _347  and  _350
REMARK  144  A    between atoms: _350  and  _351
REMARK  145  A    between atoms: _354  and  _356
REMARK  146  A    between atoms: _356  and  _357
REMARK  147  A    between atoms: _359  and  _361
REMARK  148  A    between atoms: _361  and  _362
REMARK  149  A    between atoms: _365  and  _367
REMARK  150  A    between atoms: _367  and  _368
REMARK  151  A    between atoms: _367  and  _370
REMARK  152  A    between atoms: _370  and  _371
REMARK  153  A    between atoms: _374  and  _376
REMARK  154  A    between atoms: _376  and  _377
REMARK  155  A    between atoms: _376  and  _379
REMARK  156  A    between atoms: _379  and  _380
REMARK  157  A    between atoms: _383  and  _385
REMARK  158  A    between atoms: _385  and  _386
REMARK  159  A    between atoms: _385  and  _388
REMARK  160  A    between atoms: _388  and  _389
REMARK  161  A    between atoms: _392  and  _394
REMARK  162  A    between atoms: _394  and  _395
REMARK  163  A    between atoms: _394  and  _397
REMARK  164  A    between atoms: _400  and  _402
REMARK  165  A    between atoms: _402  and  _403
REMARK  166  A    between atoms: _402  and  _405
REMARK  167  A    between atoms: _405  and  _406
REMARK  168  A    between atoms: _409  and  _411
REMARK  169  A    between atoms: _411  and  _412
REMARK  170  A    between atoms: _414  and  _416
REMARK  171  A    between atoms: _416  and  _417
REMARK  172  A    between atoms: _419  and  _421
REMARK  173  A    between atoms: _421  and  _422
REMARK  174  A    between atoms: _421  and  _424
REMARK  175  A    between atoms: _424  and  _425
REMARK  176  A    between atoms: _428  and  _430
REMARK  177  A    between atoms: _430  and  _431
REMARK  178  A    between atoms: _433  and  _435
REMARK  179  A    between atoms: _435  and  _436
REMARK  180  A    between atoms: _438  and  _440
REMARK  181  A    between atoms: _440  and  _441
REMARK  182  A    between atoms: _440  and  _443
REMARK  183  A    between atoms: _443  and  _444
REMARK  184  A    between atoms: _450  and  _452
REMARK  185  A    between atoms: _452  and  _453
REMARK  186  A    between atoms: _452  and  _455
REMARK  187  A    between atoms: _455  and  _456
REMARK  188  A    between atoms: _459  and  _461
REMARK  189  A    between atoms: _461  and  _462
REMARK  190  A    between atoms: _461  and  _464
REMARK  191  A    between atoms: _464  and  _465
REMARK  192  A    between atoms: _468  and  _470
REMARK  193  A    between atoms: _470  and  _471
REMARK  194  A    between atoms: _470  and  _473
REMARK  195  A    between atoms: _473  and  _474
REMARK  196  A    between atoms: _478  and  _479
REMARK  197  A    between atoms: _484  and  _486
REMARK  198  A    between atoms: _486  and  _487
REMARK  199  A    between atoms: _486  and  _489
REMARK  200  A    between atoms: _492  and  _494
REMARK  201  A    between atoms: _494  and  _495
REMARK  202  A    between atoms: _494  and  _497
REMARK  203  A    between atoms: _497  and  _498
REMARK  204  A    between atoms: _503  and  _505
REMARK  205  A    between atoms: _505  and  _506
REMARK  206  A    between atoms: _505  and  _508
REMARK  207  A    between atoms: _508  and  _509
REMARK  208  A    between atoms: _512  and  _514
REMARK  209  A    between atoms: _514  and  _515
REMARK  210  A    between atoms: _514  and  _517
REMARK  211  A    between atoms: _517  and  _518
REMARK  212  A    between atoms: _521  and  _523
REMARK  213  A    between atoms: _523  and  _524
REMARK  214  A    between atoms: _526  and  _528
REMARK  215  A    between atoms: _528  and  _529
REMARK  216  A    between atoms: _528  and  _531
REMARK  217  A    between atoms: _531  and  _532
REMARK  218  A    between atoms: _532  and  _533
REMARK  219  A    between atoms: _533  and  _534
REMARK                            x       y       z     vdW  Elec       q    Type
REMARK                         _______ _______ _______ _____ _____    ______ ____
ROOT
ATOM      1  CA  LEU A   1       8.261  12.504   6.507  0.00  0.00    +0.133 C 
ENDROOT
BRANCH   1   2
ATOM      2  N   LEU A   1       9.031  11.312   6.859  0.00  0.00    -0.239 NA
ATOM      3  H   LEU A   1       9.666  11.358   7.681  0.00  0.00    +0.142 HD
ENDBRANCH   1   2
BRANCH   1   4
ATOM      4  C   LEU A   1       9.162  13.450   5.714  0.00  0.00    +0.224 C 
ATOM      5  O   LEU A   1      10.369  13.540   5.978  0.00  0.00    -0.287 OA
ENDBRANCH   1   4
BRANCH   1   6
ATOM      6  CB  LEU A   1       7.764  13.195   7.785  0.00  0.00    +0.025 C 
BRANCH   6   7
ATOM      7  CG  LEU A   1       7.080  12.335   8.870  0.00  0.00    +0.002 C 
ATOM      8  CD2 LEU A   1       6.669  13.223  10.018  0.00  0.00    +0.000 C 
ATOM      9  CD1 LEU A   1       5.874  11.541   8.290  0.00  0.00    +0.000 C 
ENDBRANCH   6   7
ENDBRANCH   1   6
TORSDOF 4
REMARK  Name = ../refined-set-2016/2o4p/2o4p_pocket.pdb
REMARK  219 active torsions:
REMARK  status: ('A' for Active; 'I' for Inactive)
REMARK    1  A    between atoms: _1  and  _3
REMARK    2  A    between atoms: _3  and  _4
REMARK    3  A    between atoms: _3  and  _6
REMARK    4  A    between atoms: _6  and  _7
REMARK    5  A    between atoms: _7  and  _8
REMARK    6  A    between atoms: _8  and  _9
REMARK    7  A    between atoms: _18  and  _20
REMARK    8  A    between atoms: _20  and  _21
REMARK    9  A    between atoms: _20  and  _23
REMARK   10  A    between atoms: _23  and  _24
REMARK   11  A    between atoms: _27  and  _29
REMARK   12  A    between atoms: _29  and  _30
REMARK   13  A    between atoms: _29  and  _32
REMARK   14  A    between atoms: _32  and  _33
REMARK   15  A    between atoms: _36  and  _38
REMARK   16  A    between atoms: _38  and  _39
REMARK   17  A    between atoms: _38  and  _41
REMARK   18  A    between atoms: _41  and  _42
REMARK   19  A    between atoms: _45  and  _47
REMARK   20  A    between atoms: _47  and  _48
REMARK   21  A    between atoms: _47  and  _50
REMARK   22  A    between atoms: _50  and  _51
REMARK   23  A    between atoms: _54  and  _56
REMARK   24  A    between atoms: _56  and  _57
REMARK   25  A    between atoms: _56  and  _59
REMARK   26  A    between atoms: _59  and  _60
REMARK   27  A    between atoms: _63  and  _65
REMARK   28  A    between atoms: _65  and  _66
REMARK   29  A    between atoms: _68  and  _70
REMARK   30  A    between atoms: _70  and  _71
REMARK   31  A    between atoms: _74  and  _76
REMARK   32  A    between atoms: _76  and  _77
REMARK   33  A    between atoms: _76  and  _79
REMARK   34  A    between atoms: _79  and  _80
REMARK   35  A    between atoms: _83  and  _85
REMARK   36  A    between atoms: _85  and  _86
REMARK   37  A    between atoms: _85  and  _88
REMARK   38  A    between atoms: _88  and  _89
REMARK   39  A    between atoms: _92  and  _94
REMARK   40  A    between atoms: _94  and  _95
REMARK   41  A    between atoms: _94  and  _97
REMARK   42  A    between atoms: _97  and  _98
REMARK   43  A    between atoms: _101  and  _103
REMARK   44  A    between atoms: _103  and  _104
REMARK   45  A    between atoms: _103  and  _106
REMARK   46  A    between atoms: _109  and  _111
REMARK   47  A    between atoms: _111  and  _112
REMARK   48  A    between atoms: _111  and  _114
REMARK   49  A    between atoms: _114  and  _115
REMARK   50  A    between atoms: _115  and  _116
REMARK   51  A    between atoms: _116  and  _117
REMARK   52  A    between atoms: _117  and  _118
REMARK   53  A    between atoms: _122  and  _124
REMARK   54  A    between atoms: _124  and  _125
REMARK   55  A    between atoms: _124  and  _127
REMARK   56  A    between atoms: _127  and  _128
REMARK   57  A    between atoms: _128  and  _129
REMARK   58  A    between atoms: _131  and  _133
REMARK   59  A    between atoms: _133  and  _134
REMARK   60  A    between atoms: _133  and  _136
REMARK   61  A    between atoms: _136  and  _137
REMARK   62  A    between atoms: _140  and  _142
REMARK   63  A    between atoms: _142  and  _143
REMARK   64  A    between atoms: _145  and  _147
REMARK   65  A    between atoms: _147  and  _148
REMARK   66  A    between atoms: _150  and  _152
REMARK   67  A    between atoms: _152  and  _153
REMARK   68  A    between atoms: _152  and  _155
REMARK   69  A    between atoms: _155  and  _156
REMARK   70  A    between atoms: _159  and  _161
REMARK   71  A    between atoms: _161  and  _162
REMARK   72  A    between atoms: _164  and  _166
REMARK   73  A    between atoms: _166  and  _167
REMARK   74  A    between atoms: _169  and  _171
REMARK   75  A    between atoms: _171  and  _172
REMARK   76  A    between atoms: _171  and  _174
REMARK   77  A    between atoms: _174  and  _175
REMARK   78  A    between atoms: _181  and  _183
REMARK   79  A    between atoms: _183  and  _184
REMARK   80  A    between atoms: _183  and  _186
REMARK   81  A    between atoms: _186  and  _187
REMARK   82  A    between atoms: _190  and  _192
REMARK   83  A    between atoms: _192  and  _193
REMARK   84  A    between atoms: _192  and  _195
REMARK   85  A    between atoms: _195  and  _196
REMARK   86  A    between atoms: _199  and  _201
REMARK   87  A    between atoms: _201  and  _202
REMARK   88  A    between atoms: _201  and  _204
REMARK   89  A    between atoms: _204  and  _205
REMARK   90  A    between atoms: _209  and  _210
REMARK   91  A    between atoms: _215  and  _217
REMARK   92  A    between atoms: _217  and  _218
REMARK   93  A    between atoms: _217  and  _220
REMARK   94  A    between atoms: _223  and  _225
REMARK   95  A    between atoms: _225  and  _226
REMARK   96  A    between atoms: _225  and  _228
REMARK   97  A    between atoms: _228  and  _229
REMARK   98  A    between atoms: _234  and  _236
REMARK   99  A    between atoms: _236  and  _237
REMARK  100  A    between atoms: _236  and  _239
REMARK  101  A    between atoms: _239  and  _240
REMARK  102  A    between atoms: _243  and  _245
REMARK  103  A    between atoms: _245  and  _246
REMARK  104  A    between atoms: _245  and  _248
REMARK  105  A    between atoms: _248  and  _249
REMARK  106  A    between atoms: _252  and  _254
REMARK  107  A    between atoms: _254  and  _255
REMARK  108  A    between atoms: _257  and  _259
REMARK  109  A    between atoms: _259  and  _260
REMARK  110  A    between atoms: _259  and  _262
REMARK  111  A    between atoms: _262  and  _263
REMARK  112  A    between atoms: _263  and  _264
REMARK  113  A    between atoms: _264  and  _265
REMARK  114  A    between atoms: _274  and  _276
REMARK  115  A    between atoms: _276  and  _277
REMARK  116  A    between atoms: _276  and  _279
REMARK  117  A    between atoms: _279  and  _280
REMARK  118  A    between atoms: _285  and  _287
REMARK  119  A    between atoms: _287  and  _288
REMARK  120  A    between atoms: _287  and  _290
REMARK  121  A    between atoms: _290  and  _291
REMARK  122  A    between atoms: _291  and  _292
REMARK  123  A    between atoms: _292  and  _293
REMARK  124  A    between atoms: _303  and  _304
REMARK  125  A    between atoms: _309  and  _311
REMARK  126  A    between atoms: _311  and  _312
REMARK  127  A    between atoms: _311  and  _314
REMARK  128  A    between atoms: _314  and  _315
REMARK  129  A    between atoms: _318  and  _320
REMARK  130  A    between atoms: _320  and  _321
REMARK  131  A    between atoms: _320  and  _323
REMARK  132  A    between atoms: _323  and  _324
REMARK  133  A    between atoms: _327  and  _329
REMARK  134  A    between atoms: _329  and  _330
REMARK  135  A    between atoms: _329  and  _332
REMARK  136  A    between atoms: _332  and  _333
REMARK  137  A    between atoms: _336  and  _338
REMARK  138  A    between atoms: _338  and  _339
REMARK  139  A    between atoms: _338  and  _341
REMARK  140  A    between atoms: _341  and  _342
REMARK  141  A    between atoms: _345  and  _347
REMARK  142  A    between atoms: _347  and  _348
REMARK  143  A    between atoms: _347  and  _350
REMARK  144  A    between atoms: _350  and  _351
REMARK  145  A    between atoms: _354  and  _356
REMARK  146  A    between atoms: _356  and  _357
REMARK  147  A    between atoms: _359  and  _361
REMARK  148  A    between atoms: _361  and  _362
REMARK  149  A    between atoms: _365  and  _367
REMARK  150  A    between atoms: _367  and  _368
REMARK  151  A    between atoms: _367  and  _370
REMARK  152  A    between atoms: _370  and  _371
REMARK  153  A    between atoms: _374  and  _376
REMARK  154  A    between atoms: _376  and  _377
REMARK  155  A    between atoms: _376  and  _379
REMARK  156  A    between atoms: _379  and  _380
REMARK  157  A    between atoms: _383  and  _385
REMARK  158  A    between atoms: _385  and  _386
REMARK  159  A    between atoms: _385  and  _388
REMARK  160  A    between atoms: _388  and  _389
REMARK  161  A    between atoms: _392  and  _394
REMARK  162  A    between atoms: _394  and  _395
REMARK  163  A    between atoms: _394  and  _397
REMARK  164  A    between atoms: _400  and  _402
REMARK  165  A    between atoms: _402  and  _403
REMARK  166  A    between atoms: _402  and  _405
REMARK  167  A    between atoms: _405  and  _406
REMARK  168  A    between atoms: _409  and  _411
REMARK  169  A    between atoms: _411  and  _412
REMARK  170  A    between atoms: _414  and  _416
REMARK  171  A    between atoms: _416  and  _417
REMARK  172  A    between atoms: _419  and  _421
REMARK  173  A    between atoms: _421  and  _422
REMARK  174  A    between atoms: _421  and  _424
REMARK  175  A    between atoms: _424  and  _425
REMARK  176  A    between atoms: _428  and  _430
REMARK  177  A    between atoms: _430  and  _431
REMARK  178  A    between atoms: _433  and  _435
REMARK  179  A    between atoms: _435  and  _436
REMARK  180  A    between atoms: _438  and  _440
REMARK  181  A    between atoms: _440  and  _441
REMARK  182  A    between atoms: _440  and  _443
REMARK  183  A    between atoms: _443  and  _444
REMARK  184  A    between atoms: _450  and  _452
REMARK  185  A    between atoms: _452  and  _453
REMARK  186  A    between atoms: _452  and  _455
REMARK  187  A    between atoms: _455  and  _456
REMARK  188  A    between atoms: _459  and  _461
REMARK  189  A    between atoms: _461  and  _462
REMARK  190  A    between atoms: _461  and  _464
REMARK  191  A    between atoms: _464  and  _465
REMARK  192  A    between atoms: _468  and  _470
REMARK  193  A    between atoms: _470  and  _471
REMARK  194  A    between atoms: _470  and  _473
REMARK  195  A    between atoms: _473  and  _474
REMARK  196  A    between atoms: _478  and  _479
REMARK  197  A    between atoms: _484  and  _486
REMARK  198  A    between atoms: _486  and  _487
REMARK  199  A    between atoms: _486  and  _489
REMARK  200  A    between atoms: _492  and  _494
REMARK  201  A    between atoms: _494  and  _495
REMARK  202  A    between atoms: _494  and  _497
REMARK  203  A    between atoms: _497  and  _498
REMARK  204  A    between atoms: _503  and  _505
REMARK  205  A    between atoms: _505  and  _506
REMARK  206  A    between atoms: _505  and  _508
REMARK  207  A    between atoms: _508  and  _509
REMARK  208  A    between atoms: _512  and  _514
REMARK  209  A    between atoms: _514  and  _515
REMARK  210  A    between atoms: _514  and  _517
REMARK  211  A    between atoms: _517  and  _518
REMARK  212  A    between atoms: _521  and  _523
REMARK  213  A    between atoms: _523  and  _524
REMARK  214  A    between atoms: _526  and  _528
REMARK  215  A    between atoms: _528  and  _529
REMARK  216  A    between atoms: _528  and  _531
REMARK  217  A    between atoms: _531  and  _532
REMARK  218  A    between atoms: _532  and  _533
REMARK  219  A    between atoms: _533  and  _534
REMARK                            x       y       z     vdW  Elec       q    Type
REMARK                         _______ _______ _______ _____ _____    ______ ____
ROOT
ATOM      1  C   ILE A   5      15.940  13.521  11.207  0.00  0.00    +0.241 C 
ATOM      2  N   ILE A   6      16.813  12.761  11.869  0.00  0.00    -0.297 N 
ATOM      3  H   ILE A   6      17.731  13.171  12.136  0.00  0.00    +0.150 HD
ATOM      4  O   ILE A   5      14.926  13.094  10.644  0.00  0.00    -0.273 OA
ENDROOT
BRANCH   2   5
ATOM      5  CA  ILE A   6      16.533  11.388  12.231  0.00  0.00    +0.149 C 
BRANCH   5   6
ATOM      6  C   ILE A   6      15.912  11.351  13.628  0.00  0.00    +0.241 C 
ATOM      7  O   ILE A   6      16.561  11.752  14.606  0.00  0.00    -0.273 OA
ATOM      8  N   GLY A   7      14.662  10.884  13.715  0.00  0.00    -0.295 N 
ATOM      9  H   GLY A   7      14.195  10.509  12.865  0.00  0.00    +0.150 HD
BRANCH   8  10
ATOM     10  CA  GLY A   7      13.950  10.893  14.974  0.00  0.00    +0.176 C 
BRANCH  10  11
ATOM     11  C   GLY A   7      13.864   9.515  15.592  0.00  0.00    +0.243 C 
ATOM     12  N   ARG A   8      13.151   9.415  16.712  0.00  0.00    -0.297 N 
ATOM     13  H   ARG A   8      12.594  10.236  17.023  0.00  0.00    +0.150 HD
ATOM     14  O   GLY A   7      14.426   8.569  15.050  0.00  0.00    -0.273 OA
BRANCH  12  15
ATOM     15  CA  ARG A   8      13.118   8.195  17.526  0.00  0.00    +0.149 C 
BRANCH  15  16
ATOM     16  C   ARG A   8      12.624   6.960  16.776  0.00  0.00    +0.241 C 
ATOM     17  O   ARG A   8      13.086   5.842  17.079  0.00  0.00    -0.273 OA
ATOM     18  N   ASN A   9      11.666   7.134  15.860  0.00  0.00    -0.298 N 
ATOM     19  H   ASN A   9      11.302   8.093  15.686  0.00  0.00    +0.150 HD
BRANCH  18  20
ATOM     20  CA  ASN A   9      11.105   5.997  15.082  0.00  0.00    +0.146 C 
BRANCH  20  21
ATOM     21  C   ASN A   9      12.182   5.164  14.348  0.00  0.00    +0.227 C 
ATOM     22  O   ASN A   9      12.064   3.933  14.234  0.00  0.00    -0.286 OA
ENDBRANCH  20  21
BRANCH  20  23
ATOM     23  CB  ASN A   9       9.965   6.431  14.142  0.00  0.00    +0.112 C 
BRANCH  23  24
ATOM     24  CG  ASN A   9      10.462   7.031  12.848  0.00  0.00    +0.222 C 
ATOM     25  OD1 ASN A   9      11.229   7.997  12.852  0.00  0.00    -0.275 OA
ATOM     26  ND2 ASN A   9      10.003   6.474  11.720  0.00  0.00    -0.329 N 
ATOM     27 HD21 ASN A   9       9.357   5.660  11.767  0.00  0.00    +0.145 HD
ATOM     28 HD22 ASN A   9      10.292   6.855  10.797  0.00  0.00    +0.145 HD
ENDBRANCH  23  24
ENDBRANCH  20  23
ENDBRANCH  18  20
ENDBRANCH  15  16
BRANCH  15  29
ATOM     29  CB  ARG A   8      12.264   8.382  18.786  0.00  0.00    +0.033 C 
BRANCH  29  30
ATOM     30  CG  ARG A   8      12.872   9.365  19.847  0.00  0.00    +0.045 C 
BRANCH  30  31
ATOM     31  CD  ARG A   8      12.084   9.423  21.163  0.00  0.00    +0.174 C 
BRANCH  31  32
ATOM     32  NE  ARG A   8      10.682   9.793  20.956  0.00  0.00    -0.265 N 
ATOM     33  CZ  ARG A   8       9.651   8.943  20.911  0.00  0.00    +0.342 C 
ATOM     34  NH2 ARG A   8       9.843   7.628  21.033  0.00  0.00    -0.292 N 
ATOM     35 HH21 ARG A   8      10.804   7.253  21.165  0.00  0.00    +0.255 HD
ATOM     36 HH22 ARG A   8       9.032   6.978  20.996  0.00  0.00    +0.255 HD
ATOM     37  NH1 ARG A   8       8.426   9.421  20.706  0.00  0.00    -0.292 N 
ATOM     38 HH11 ARG A   8       7.614   8.772  20.668  0.00  0.00    +0.255 HD
ATOM     39 HH12 ARG A   8       8.281  10.443  20.583  0.00  0.00    +0.255 HD
ATOM     40  HE  ARG A   8      10.470  10.804  20.833  0.00  0.00    +0.259 HD
ENDBRANCH  31  32
ENDBRANCH  30  31
ENDBRANCH  29  30
ENDBRANCH  15  29
ENDBRANCH  12  15
ENDBRANCH  10  11
ENDBRANCH   8  10
ENDBRANCH   5   6
BRANCH   5  41
ATOM     41  CB  ILE A   6      17.795  10.498  12.165  0.00  0.00    +0.027 C 
ATOM     42  CG2 ILE A   6      17.425   9.030  12.521  0.00  0.00    +0.002 C 
BRANCH  41  43
ATOM     43  CG1 ILE A   6      18.504  10.592  10.787  0.00  0.00    +0.002 C 
ATOM     44  CD1 ILE A   6      17.605  10.422   9.495  0.00  0.00    +0.000 C 
ENDBRANCH  41  43
ENDBRANCH   5  41
ENDBRANCH   2   5
BRANCH   1  45
ATOM     45  CA  ILE A   5      16.268  14.998  11.163  0.00  0.00    +0.149 C 
BRANCH  45  48
ATOM     46  C   ASN A   4      17.412  16.092   9.339  0.00  0.00    +0.241 C 
ATOM     47  O   ASN A   4      18.445  16.203   9.999  0.00  0.00    -0.273 OA
ATOM     48  N   ILE A   5      16.321  15.486   9.790  0.00  0.00    -0.297 N 
ATOM     49  H   ILE A   5      15.502  15.359   9.162  0.00  0.00    +0.150 HD
BRANCH  46  50
ATOM     50  CA  ASN A   4      17.361  16.610   7.908  0.00  0.00    +0.158 C 
BRANCH  50  53
ATOM     51  C   VAL A   3      17.012  18.960   8.434  0.00  0.00    +0.241 C 
ATOM     52  O   VAL A   3      15.852  18.722   8.842  0.00  0.00    -0.273 OA
ATOM     53  N   ASN A   4      17.782  18.021   7.878  0.00  0.00    -0.297 N 
ATOM     54  H   ASN A   4      18.679  18.286   7.424  0.00  0.00    +0.150 HD
BRANCH  51  55
ATOM     55  CA  VAL A   3      17.582  20.377   8.524  0.00  0.00    +0.149 C 
BRANCH  55  57
ATOM     56  C   PRO A   2      16.603  22.575   7.947  0.00  0.00    +0.241 C 
ATOM     57  N   VAL A   3      16.478  21.349   8.467  0.00  0.00    -0.297 N 
ATOM     58  H   VAL A   3      15.553  21.068   8.851  0.00  0.00    +0.150 HD
ATOM     59  O   PRO A   2      17.635  22.969   7.429  0.00  0.00    -0.273 OA
BRANCH  56  65
ATOM     60  C   THR A   1      13.550  22.016   7.347  0.00  0.00    +0.244 C 
ATOM     61  N   PRO A   2      14.112  22.793   8.276  0.00  0.00    -0.272 N 
ATOM     62  CD  PRO A   2      13.608  23.093   9.635  0.00  0.00    +0.094 C 
ATOM     63  CG  PRO A   2      14.766  23.900  10.228  0.00  0.00    +0.024 C 
ATOM     64  CB  PRO A   2      15.436  24.553   9.106  0.00  0.00    +0.031 C 
ATOM     65  CA  PRO A   2      15.356  23.512   7.973  0.00  0.00    +0.152 C 
ATOM     66  O   THR A   1      14.035  21.911   6.221  0.00  0.00    -0.273 OA
BRANCH  60  67
ATOM     67  CA  THR A   1      12.242  21.274   7.699  0.00  0.00    +0.172 C 
BRANCH  67  68
ATOM     68  N   THR A   1      11.411  21.229   6.505  0.00  0.00    -0.236 NA
ATOM     69  H   THR A   1      11.318  20.339   5.975  0.00  0.00    +0.142 HD
ENDBRANCH  67  68
BRANCH  67  70
ATOM     70  CB  THR A   1      12.493  19.847   8.261  0.00  0.00    +0.135 C 
ATOM     71  CG2 THR A   1      13.172  18.928   7.209  0.00  0.00    +0.034 C 
BRANCH  70  72
ATOM     72  OG1 THR A   1      13.454  19.913   9.308  0.00  0.00    -0.383 OA
ATOM     73  HG1 THR A   1      14.301  20.283   8.954  0.00  0.00    +0.210 HD
ENDBRANCH  70  72
ENDBRANCH  67  70
ENDBRANCH  60  67
ENDBRANCH  56  65
ENDBRANCH  55  57
BRANCH  55  74
ATOM     74  CB  VAL A   3      18.451  20.564   9.838  0.00  0.00    +0.027 C 
ATOM     75  CG2 VAL A   3      17.635  20.352  11.119  0.00  0.00    +0.002 C 
ATOM     76  CG1 VAL A   3      19.721  19.680   9.864  0.00  0.00    +0.002 C 
ENDBRANCH  55  74
ENDBRANCH  51  55
ENDBRANCH  50  53
BRANCH  50  77
ATOM     77  CB  ASN A   4      18.255  15.742   7.025  0.00  0.00    +0.114 C 
BRANCH  77  78
ATOM     78  CG  ASN A   4      18.037  15.987   5.506  0.00  0.00    +0.222 C 
ATOM     79  OD1 ASN A   4      16.919  16.275   5.030  0.00  0.00    -0.275 OA
ATOM     80  ND2 ASN A   4      19.106  15.825   4.755  0.00  0.00    -0.329 N 
ATOM     81 HD21 ASN A   4      20.018  15.585   5.193  0.00  0.00    +0.145 HD
ATOM     82 HD22 ASN A   4      19.038  15.937   3.723  0.00  0.00    +0.145 HD
ENDBRANCH  77  78
ENDBRANCH  50  77
ENDBRANCH  46  50
ENDBRANCH  45  48
BRANCH  45  83
ATOM     83  CB  ILE A   5      15.242  15.831  12.005  0.00  0.00    +0.027 C 
ATOM     84  CG2 ILE A   5      14.966  15.182  13.367  0.00  0.00    +0.002 C 
BRANCH  83  85
ATOM     85  CG1 ILE A   5      15.797  17.250  12.260  0.00  0.00    +0.002 C 
ATOM     86  CD1 ILE A   5      14.770  18.253  12.742  0.00  0.00    +0.000 C 
ENDBRANCH  83  85
ENDBRANCH  45  83
ENDBRANCH   1  45
TORSDOF 32
REMARK  Name = ../refined-set-2016/2o4p/2o4p_pocket.pdb
REMARK  219 active torsions:
REMARK  status: ('A' for Active; 'I' for Inactive)
REMARK    1  A    between atoms: _1  and  _3
REMARK    2  A    between atoms: _3  and  _4
REMARK    3  A    between atoms: _3  and  _6
REMARK    4  A    between atoms: _6  and  _7
REMARK    5  A    between atoms: _7  and  _8
REMARK    6  A    between atoms: _8  and  _9
REMARK    7  A    between atoms: _18  and  _20
REMARK    8  A    between atoms: _20  and  _21
REMARK    9  A    between atoms: _20  and  _23
REMARK   10  A    between atoms: _23  and  _24
REMARK   11  A    between atoms: _27  and  _29
REMARK   12  A    between atoms: _29  and  _30
REMARK   13  A    between atoms: _29  and  _32
REMARK   14  A    between atoms: _32  and  _33
REMARK   15  A    between atoms: _36  and  _38
REMARK   16  A    between atoms: _38  and  _39
REMARK   17  A    between atoms: _38  and  _41
REMARK   18  A    between atoms: _41  and  _42
REMARK   19  A    between atoms: _45  and  _47
REMARK   20  A    between atoms: _47  and  _48
REMARK   21  A    between atoms: _47  and  _50
REMARK   22  A    between atoms: _50  and  _51
REMARK   23  A    between atoms: _54  and  _56
REMARK   24  A    between atoms: _56  and  _57
REMARK   25  A    between atoms: _56  and  _59
REMARK   26  A    between atoms: _59  and  _60
REMARK   27  A    between atoms: _63  and  _65
REMARK   28  A    between atoms: _65  and  _66
REMARK   29  A    between atoms: _68  and  _70
REMARK   30  A    between atoms: _70  and  _71
REMARK   31  A    between atoms: _74  and  _76
REMARK   32  A    between atoms: _76  and  _77
REMARK   33  A    between atoms: _76  and  _79
REMARK   34  A    between atoms: _79  and  _80
REMARK   35  A    between atoms: _83  and  _85
REMARK   36  A    between atoms: _85  and  _86
REMARK   37  A    between atoms: _85  and  _88
REMARK   38  A    between atoms: _88  and  _89
REMARK   39  A    between atoms: _92  and  _94
REMARK   40  A    between atoms: _94  and  _95
REMARK   41  A    between atoms: _94  and  _97
REMARK   42  A    between atoms: _97  and  _98
REMARK   43  A    between atoms: _101  and  _103
REMARK   44  A    between atoms: _103  and  _104
REMARK   45  A    between atoms: _103  and  _106
REMARK   46  A    between atoms: _109  and  _111
REMARK   47  A    between atoms: _111  and  _112
REMARK   48  A    between atoms: _111  and  _114
REMARK   49  A    between atoms: _114  and  _115
REMARK   50  A    between atoms: _115  and  _116
REMARK   51  A    between atoms: _116  and  _117
REMARK   52  A    between atoms: _117  and  _118
REMARK   53  A    between atoms: _122  and  _124
REMARK   54  A    between atoms: _124  and  _125
REMARK   55  A    between atoms: _124  and  _127
REMARK   56  A    between atoms: _127  and  _128
REMARK   57  A    between atoms: _128  and  _129
REMARK   58  A    between atoms: _131  and  _133
REMARK   59  A    between atoms: _133  and  _134
REMARK   60  A    between atoms: _133  and  _136
REMARK   61  A    between atoms: _136  and  _137
REMARK   62  A    between atoms: _140  and  _142
REMARK   63  A    between atoms: _142  and  _143
REMARK   64  A    between atoms: _145  and  _147
REMARK   65  A    between atoms: _147  and  _148
REMARK   66  A    between atoms: _150  and  _152
REMARK   67  A    between atoms: _152  and  _153
REMARK   68  A    between atoms: _152  and  _155
REMARK   69  A    between atoms: _155  and  _156
REMARK   70  A    between atoms: _159  and  _161
REMARK   71  A    between atoms: _161  and  _162
REMARK   72  A    between atoms: _164  and  _166
REMARK   73  A    between atoms: _166  and  _167
REMARK   74  A    between atoms: _169  and  _171
REMARK   75  A    between atoms: _171  and  _172
REMARK   76  A    between atoms: _171  and  _174
REMARK   77  A    between atoms: _174  and  _175
REMARK   78  A    between atoms: _181  and  _183
REMARK   79  A    between atoms: _183  and  _184
REMARK   80  A    between atoms: _183  and  _186
REMARK   81  A    between atoms: _186  and  _187
REMARK   82  A    between atoms: _190  and  _192
REMARK   83  A    between atoms: _192  and  _193
REMARK   84  A    between atoms: _192  and  _195
REMARK   85  A    between atoms: _195  and  _196
REMARK   86  A    between atoms: _199  and  _201
REMARK   87  A    between atoms: _201  and  _202
REMARK   88  A    between atoms: _201  and  _204
REMARK   89  A    between atoms: _204  and  _205
REMARK   90  A    between atoms: _209  and  _210
REMARK   91  A    between atoms: _215  and  _217
REMARK   92  A    between atoms: _217  and  _218
REMARK   93  A    between atoms: _217  and  _220
REMARK   94  A    between atoms: _223  and  _225
REMARK   95  A    between atoms: _225  and  _226
REMARK   96  A    between atoms: _225  and  _228
REMARK   97  A    between atoms: _228  and  _229
REMARK   98  A    between atoms: _234  and  _236
REMARK   99  A    between atoms: _236  and  _237
REMARK  100  A    between atoms: _236  and  _239
REMARK  101  A    between atoms: _239  and  _240
REMARK  102  A    between atoms: _243  and  _245
REMARK  103  A    between atoms: _245  and  _246
REMARK  104  A    between atoms: _245  and  _248
REMARK  105  A    between atoms: _248  and  _249
REMARK  106  A    between atoms: _252  and  _254
REMARK  107  A    between atoms: _254  and  _255
REMARK  108  A    between atoms: _257  and  _259
REMARK  109  A    between atoms: _259  and  _260
REMARK  110  A    between atoms: _259  and  _262
REMARK  111  A    between atoms: _262  and  _263
REMARK  112  A    between atoms: _263  and  _264
REMARK  113  A    between atoms: _264  and  _265
REMARK  114  A    between atoms: _274  and  _276
REMARK  115  A    between atoms: _276  and  _277
REMARK  116  A    between atoms: _276  and  _279
REMARK  117  A    between atoms: _279  and  _280
REMARK  118  A    between atoms: _285  and  _287
REMARK  119  A    between atoms: _287  and  _288
REMARK  120  A    between atoms: _287  and  _290
REMARK  121  A    between atoms: _290  and  _291
REMARK  122  A    between atoms: _291  and  _292
REMARK  123  A    between atoms: _292  and  _293
REMARK  124  A    between atoms: _303  and  _304
REMARK  125  A    between atoms: _309  and  _311
REMARK  126  A    between atoms: _311  and  _312
REMARK  127  A    between atoms: _311  and  _314
REMARK  128  A    between atoms: _314  and  _315
REMARK  129  A    between atoms: _318  and  _320
REMARK  130  A    between atoms: _320  and  _321
REMARK  131  A    between atoms: _320  and  _323
REMARK  132  A    between atoms: _323  and  _324
REMARK  133  A    between atoms: _327  and  _329
REMARK  134  A    between atoms: _329  and  _330
REMARK  135  A    between atoms: _329  and  _332
REMARK  136  A    between atoms: _332  and  _333
REMARK  137  A    between atoms: _336  and  _338
REMARK  138  A    between atoms: _338  and  _339
REMARK  139  A    between atoms: _338  and  _341
REMARK  140  A    between atoms: _341  and  _342
REMARK  141  A    between atoms: _345  and  _347
REMARK  142  A    between atoms: _347  and  _348
REMARK  143  A    between atoms: _347  and  _350
REMARK  144  A    between atoms: _350  and  _351
REMARK  145  A    between atoms: _354  and  _356
REMARK  146  A    between atoms: _356  and  _357
REMARK  147  A    between atoms: _359  and  _361
REMARK  148  A    between atoms: _361  and  _362
REMARK  149  A    between atoms: _365  and  _367
REMARK  150  A    between atoms: _367  and  _368
REMARK  151  A    between atoms: _367  and  _370
REMARK  152  A    between atoms: _370  and  _371
REMARK  153  A    between atoms: _374  and  _376
REMARK  154  A    between atoms: _376  and  _377
REMARK  155  A    between atoms: _376  and  _379
REMARK  156  A    between atoms: _379  and  _380
REMARK  157  A    between atoms: _383  and  _385
REMARK  158  A    between atoms: _385  and  _386
REMARK  159  A    between atoms: _385  and  _388
REMARK  160  A    between atoms: _388  and  _389
REMARK  161  A    between atoms: _392  and  _394
REMARK  162  A    between atoms: _394  and  _395
REMARK  163  A    between atoms: _394  and  _397
REMARK  164  A    between atoms: _400  and  _402
REMARK  165  A    between atoms: _402  and  _403
REMARK  166  A    between atoms: _402  and  _405
REMARK  167  A    between atoms: _405  and  _406
REMARK  168  A    between atoms: _409  and  _411
REMARK  169  A    between atoms: _411  and  _412
REMARK  170  A    between atoms: _414  and  _416
REMARK  171  A    between atoms: _416  and  _417
REMARK  172  A    between atoms: _419  and  _421
REMARK  173  A    between atoms: _421  and  _422
REMARK  174  A    between atoms: _421  and  _424
REMARK  175  A    between atoms: _424  and  _425
REMARK  176  A    between atoms: _428  and  _430
REMARK  177  A    between atoms: _430  and  _431
REMARK  178  A    between atoms: _433  and  _435
REMARK  179  A    between atoms: _435  and  _436
REMARK  180  A    between atoms: _438  and  _440
REMARK  181  A    between atoms: _440  and  _441
REMARK  182  A    between atoms: _440  and  _443
REMARK  183  A    between atoms: _443  and  _444
REMARK  184  A    between atoms: _450  and  _452
REMARK  185  A    between atoms: _452  and  _453
REMARK  186  A    between atoms: _452  and  _455
REMARK  187  A    between atoms: _455  and  _456
REMARK  188  A    between atoms: _459  and  _461
REMARK  189  A    between atoms: _461  and  _462
REMARK  190  A    between atoms: _461  and  _464
REMARK  191  A    between atoms: _464  and  _465
REMARK  192  A    between atoms: _468  and  _470
REMARK  193  A    between atoms: _470  and  _471
REMARK  194  A    between atoms: _470  and  _473
REMARK  195  A    between atoms: _473  and  _474
REMARK  196  A    between atoms: _478  and  _479
REMARK  197  A    between atoms: _484  and  _486
REMARK  198  A    between atoms: _486  and  _487
REMARK  199  A    between atoms: _486  and  _489
REMARK  200  A    between atoms: _492  and  _494
REMARK  201  A    between atoms: _494  and  _495
REMARK  202  A    between atoms: _494  and  _497
REMARK  203  A    between atoms: _497  and  _498
REMARK  204  A    between atoms: _503  and  _505
REMARK  205  A    between atoms: _505  and  _506
REMARK  206  A    between atoms: _505  and  _508
REMARK  207  A    between atoms: _508  and  _509
REMARK  208  A    between atoms: _512  and  _514
REMARK  209  A    between atoms: _514  and  _515
REMARK  210  A    between atoms: _514  and  _517
REMARK  211  A    between atoms: _517  and  _518
REMARK  212  A    between atoms: _521  and  _523
REMARK  213  A    between atoms: _523  and  _524
REMARK  214  A    between atoms: _526  and  _528
REMARK  215  A    between atoms: _528  and  _529
REMARK  216  A    between atoms: _528  and  _531
REMARK  217  A    between atoms: _531  and  _532
REMARK  218  A    between atoms: _532  and  _533
REMARK  219  A    between atoms: _533  and  _534
REMARK                            x       y       z     vdW  Elec       q    Type
REMARK                         _______ _______ _______ _____ _____    ______ ____
ROOT
ATOM      1  C   ARG A   1      10.802  10.183  25.763  0.00  0.00    +0.241 C 
ATOM      2  O   ARG A   1      10.440   9.703  26.814  0.00  0.00    -0.273 OA
ATOM      3  N   PRO A   2      12.043  10.650  25.592  0.00  0.00    -0.272 N 
ATOM      4  CA  PRO A   2      13.001  10.669  26.695  0.00  0.00    +0.152 C 
ATOM      5  CB  PRO A   2      14.354  10.786  25.978  0.00  0.00    +0.031 C 
ATOM      6  CG  PRO A   2      14.037  11.491  24.708  0.00  0.00    +0.024 C 
ATOM      7  CD  PRO A   2      12.671  11.034  24.311  0.00  0.00    +0.094 C 
ENDROOT
BRANCH   4   8
ATOM      8  C   PRO A   2      12.718  11.840  27.672  0.00  0.00    +0.241 C 
ATOM      9  N   LEU A   3      11.626  11.712  28.411  0.00  0.00    -0.298 N 
ATOM     10  H   LEU A   3      11.048  10.856  28.294  0.00  0.00    +0.150 HD
ATOM     11  O   PRO A   2      13.464  12.814  27.740  0.00  0.00    -0.273 OA
BRANCH   9  12
ATOM     12  CA  LEU A   3      11.196  12.711  29.378  0.00  0.00    +0.137 C 
BRANCH  12  13
ATOM     13  C   LEU A   3      11.742  12.384  30.766  0.00  0.00    +0.227 C 
ATOM     14  O   LEU A   3      11.484  11.288  31.283  0.00  0.00    -0.286 OA
ENDBRANCH  12  13
BRANCH  12  15
ATOM     15  CB  LEU A   3       9.659  12.767  29.426  0.00  0.00    +0.028 C 
BRANCH  15  16
ATOM     16  CG  LEU A   3       8.954  13.201  28.143  0.00  0.00    +0.002 C 
ATOM     17  CD2 LEU A   3       7.519  12.764  28.157  0.00  0.00    +0.000 C 
ATOM     18  CD1 LEU A   3       9.057  14.710  27.944  0.00  0.00    +0.000 C 
ENDBRANCH  15  16
ENDBRANCH  12  15
ENDBRANCH   9  12
ENDBRANCH   4   8
BRANCH   1  19
ATOM     19  CA  ARG A   1       9.842  10.209  24.566  0.00  0.00    +0.145 C 
BRANCH  19  20
ATOM     20  N   ARG A   1       9.138   8.936  24.414  0.00  0.00    -0.238 NA
ATOM     21  H   ARG A   1       8.100   8.901  24.367  0.00  0.00    +0.142 HD
ENDBRANCH  19  20
BRANCH  19  22
ATOM     22  CB  ARG A   1       8.860  11.356  24.749  0.00  0.00    +0.030 C 
BRANCH  22  23
ATOM     23  CG  ARG A   1       8.120  11.687  23.476  0.00  0.00    +0.045 C 
BRANCH  23  24
ATOM     24  CD  ARG A   1       7.081  12.763  23.652  0.00  0.00    +0.174 C 
BRANCH  24  25
ATOM     25  NE  ARG A   1       6.431  13.104  22.391  0.00  0.00    -0.265 N 
ATOM     26  CZ  ARG A   1       5.302  13.819  22.313  0.00  0.00    +0.342 C 
ATOM     27  NH2 ARG A   1       4.697  14.223  23.413  0.00  0.00    -0.292 N 
ATOM     28 HH21 ARG A   1       5.097  13.986  24.343  0.00  0.00    +0.255 HD
ATOM     29 HH22 ARG A   1       3.820  14.778  23.350  0.00  0.00    +0.255 HD
ATOM     30  NH1 ARG A   1       4.762  14.108  21.142  0.00  0.00    -0.292 N 
ATOM     31 HH11 ARG A   1       3.885  14.664  21.097  0.00  0.00    +0.255 HD
ATOM     32 HH12 ARG A   1       5.214  13.779  20.265  0.00  0.00    +0.255 HD
ATOM     33  HE  ARG A   1       6.868  12.774  21.507  0.00  0.00    +0.259 HD
ENDBRANCH  24  25
ENDBRANCH  23  24
ENDBRANCH  22  23
ENDBRANCH  19  22
ENDBRANCH   1  19
TORSDOF 11
REMARK  Name = ../refined-set-2016/2o4p/2o4p_pocket.pdb
REMARK  219 active torsions:
REMARK  status: ('A' for Active; 'I' for Inactive)
REMARK    1  A    between atoms: _1  and  _3
REMARK    2  A    between atoms: _3  and  _4
REMARK    3  A    between atoms: _3  and  _6
REMARK    4  A    between atoms: _6  and  _7
REMARK    5  A    between atoms: _7  and  _8
REMARK    6  A    between atoms: _8  and  _9
REMARK    7  A    between atoms: _18  and  _20
REMARK    8  A    between atoms: _20  and  _21
REMARK    9  A    between atoms: _20  and  _23
REMARK   10  A    between atoms: _23  and  _24
REMARK   11  A    between atoms: _27  and  _29
REMARK   12  A    between atoms: _29  and  _30
REMARK   13  A    between atoms: _29  and  _32
REMARK   14  A    between atoms: _32  and  _33
REMARK   15  A    between atoms: _36  and  _38
REMARK   16  A    between atoms: _38  and  _39
REMARK   17  A    between atoms: _38  and  _41
REMARK   18  A    between atoms: _41  and  _42
REMARK   19  A    between atoms: _45  and  _47
REMARK   20  A    between atoms: _47  and  _48
REMARK   21  A    between atoms: _47  and  _50
REMARK   22  A    between atoms: _50  and  _51
REMARK   23  A    between atoms: _54  and  _56
REMARK   24  A    between atoms: _56  and  _57
REMARK   25  A    between atoms: _56  and  _59
REMARK   26  A    between atoms: _59  and  _60
REMARK   27  A    between atoms: _63  and  _65
REMARK   28  A    between atoms: _65  and  _66
REMARK   29  A    between atoms: _68  and  _70
REMARK   30  A    between atoms: _70  and  _71
REMARK   31  A    between atoms: _74  and  _76
REMARK   32  A    between atoms: _76  and  _77
REMARK   33  A    between atoms: _76  and  _79
REMARK   34  A    between atoms: _79  and  _80
REMARK   35  A    between atoms: _83  and  _85
REMARK   36  A    between atoms: _85  and  _86
REMARK   37  A    between atoms: _85  and  _88
REMARK   38  A    between atoms: _88  and  _89
REMARK   39  A    between atoms: _92  and  _94
REMARK   40  A    between atoms: _94  and  _95
REMARK   41  A    between atoms: _94  and  _97
REMARK   42  A    between atoms: _97  and  _98
REMARK   43  A    between atoms: _101  and  _103
REMARK   44  A    between atoms: _103  and  _104
REMARK   45  A    between atoms: _103  and  _106
REMARK   46  A    between atoms: _109  and  _111
REMARK   47  A    between atoms: _111  and  _112
REMARK   48  A    between atoms: _111  and  _114
REMARK   49  A    between atoms: _114  and  _115
REMARK   50  A    between atoms: _115  and  _116
REMARK   51  A    between atoms: _116  and  _117
REMARK   52  A    between atoms: _117  and  _118
REMARK   53  A    between atoms: _122  and  _124
REMARK   54  A    between atoms: _124  and  _125
REMARK   55  A    between atoms: _124  and  _127
REMARK   56  A    between atoms: _127  and  _128
REMARK   57  A    between atoms: _128  and  _129
REMARK   58  A    between atoms: _131  and  _133
REMARK   59  A    between atoms: _133  and  _134
REMARK   60  A    between atoms: _133  and  _136
REMARK   61  A    between atoms: _136  and  _137
REMARK   62  A    between atoms: _140  and  _142
REMARK   63  A    between atoms: _142  and  _143
REMARK   64  A    between atoms: _145  and  _147
REMARK   65  A    between atoms: _147  and  _148
REMARK   66  A    between atoms: _150  and  _152
REMARK   67  A    between atoms: _152  and  _153
REMARK   68  A    between atoms: _152  and  _155
REMARK   69  A    between atoms: _155  and  _156
REMARK   70  A    between atoms: _159  and  _161
REMARK   71  A    between atoms: _161  and  _162
REMARK   72  A    between atoms: _164  and  _166
REMARK   73  A    between atoms: _166  and  _167
REMARK   74  A    between atoms: _169  and  _171
REMARK   75  A    between atoms: _171  and  _172
REMARK   76  A    between atoms: _171  and  _174
REMARK   77  A    between atoms: _174  and  _175
REMARK   78  A    between atoms: _181  and  _183
REMARK   79  A    between atoms: _183  and  _184
REMARK   80  A    between atoms: _183  and  _186
REMARK   81  A    between atoms: _186  and  _187
REMARK   82  A    between atoms: _190  and  _192
REMARK   83  A    between atoms: _192  and  _193
REMARK   84  A    between atoms: _192  and  _195
REMARK   85  A    between atoms: _195  and  _196
REMARK   86  A    between atoms: _199  and  _201
REMARK   87  A    between atoms: _201  and  _202
REMARK   88  A    between atoms: _201  and  _204
REMARK   89  A    between atoms: _204  and  _205
REMARK   90  A    between atoms: _209  and  _210
REMARK   91  A    between atoms: _215  and  _217
REMARK   92  A    between atoms: _217  and  _218
REMARK   93  A    between atoms: _217  and  _220
REMARK   94  A    between atoms: _223  and  _225
REMARK   95  A    between atoms: _225  and  _226
REMARK   96  A    between atoms: _225  and  _228
REMARK   97  A    between atoms: _228  and  _229
REMARK   98  A    between atoms: _234  and  _236
REMARK   99  A    between atoms: _236  and  _237
REMARK  100  A    between atoms: _236  and  _239
REMARK  101  A    between atoms: _239  and  _240
REMARK  102  A    between atoms: _243  and  _245
REMARK  103  A    between atoms: _245  and  _246
REMARK  104  A    between atoms: _245  and  _248
REMARK  105  A    between atoms: _248  and  _249
REMARK  106  A    between atoms: _252  and  _254
REMARK  107  A    between atoms: _254  and  _255
REMARK  108  A    between atoms: _257  and  _259
REMARK  109  A    between atoms: _259  and  _260
REMARK  110  A    between atoms: _259  and  _262
REMARK  111  A    between atoms: _262  and  _263
REMARK  112  A    between atoms: _263  and  _264
REMARK  113  A    between atoms: _264  and  _265
REMARK  114  A    between atoms: _274  and  _276
REMARK  115  A    between atoms: _276  and  _277
REMARK  116  A    between atoms: _276  and  _279
REMARK  117  A    between atoms: _279  and  _280
REMARK  118  A    between atoms: _285  and  _287
REMARK  119  A    between atoms: _287  and  _288
REMARK  120  A    between atoms: _287  and  _290
REMARK  121  A    between atoms: _290  and  _291
REMARK  122  A    between atoms: _291  and  _292
REMARK  123  A    between atoms: _292  and  _293
REMARK  124  A    between atoms: _303  and  _304
REMARK  125  A    between atoms: _309  and  _311
REMARK  126  A    between atoms: _311  and  _312
REMARK  127  A    between atoms: _311  and  _314
REMARK  128  A    between atoms: _314  and  _315
REMARK  129  A    between atoms: _318  and  _320
REMARK  130  A    between atoms: _320  and  _321
REMARK  131  A    between atoms: _320  and  _323
REMARK  132  A    between atoms: _323  and  _324
REMARK  133  A    between atoms: _327  and  _329
REMARK  134  A    between atoms: _329  and  _330
REMARK  135  A    between atoms: _329  and  _332
REMARK  136  A    between atoms: _332  and  _333
REMARK  137  A    between atoms: _336  and  _338
REMARK  138  A    between atoms: _338  and  _339
REMARK  139  A    between atoms: _338  and  _341
REMARK  140  A    between atoms: _341  and  _342
REMARK  141  A    between atoms: _345  and  _347
REMARK  142  A    between atoms: _347  and  _348
REMARK  143  A    between atoms: _347  and  _350
REMARK  144  A    between atoms: _350  and  _351
REMARK  145  A    between atoms: _354  and  _356
REMARK  146  A    between atoms: _356  and  _357
REMARK  147  A    between atoms: _359  and  _361
REMARK  148  A    between atoms: _361  and  _362
REMARK  149  A    between atoms: _365  and  _367
REMARK  150  A    between atoms: _367  and  _368
REMARK  151  A    between atoms: _367  and  _370
REMARK  152  A    between atoms: _370  and  _371
REMARK  153  A    between atoms: _374  and  _376
REMARK  154  A    between atoms: _376  and  _377
REMARK  155  A    between atoms: _376  and  _379
REMARK  156  A    between atoms: _379  and  _380
REMARK  157  A    between atoms: _383  and  _385
REMARK  158  A    between atoms: _385  and  _386
REMARK  159  A    between atoms: _385  and  _388
REMARK  160  A    between atoms: _388  and  _389
REMARK  161  A    between atoms: _392  and  _394
REMARK  162  A    between atoms: _394  and  _395
REMARK  163  A    between atoms: _394  and  _397
REMARK  164  A    between atoms: _400  and  _402
REMARK  165  A    between atoms: _402  and  _403
REMARK  166  A    between atoms: _402  and  _405
REMARK  167  A    between atoms: _405  and  _406
REMARK  168  A    between atoms: _409  and  _411
REMARK  169  A    between atoms: _411  and  _412
REMARK  170  A    between atoms: _414  and  _416
REMARK  171  A    between atoms: _416  and  _417
REMARK  172  A    between atoms: _419  and  _421
REMARK  173  A    between atoms: _421  and  _422
REMARK  174  A    between atoms: _421  and  _424
REMARK  175  A    between atoms: _424  and  _425
REMARK  176  A    between atoms: _428  and  _430
REMARK  177  A    between atoms: _430  and  _431
REMARK  178  A    between atoms: _433  and  _435
REMARK  179  A    between atoms: _435  and  _436
REMARK  180  A    between atoms: _438  and  _440
REMARK  181  A    between atoms: _440  and  _441
REMARK  182  A    between atoms: _440  and  _443
REMARK  183  A    between atoms: _443  and  _444
REMARK  184  A    between atoms: _450  and  _452
REMARK  185  A    between atoms: _452  and  _453
REMARK  186  A    between atoms: _452  and  _455
REMARK  187  A    between atoms: _455  and  _456
REMARK  188  A    between atoms: _459  and  _461
REMARK  189  A    between atoms: _461  and  _462
REMARK  190  A    between atoms: _461  and  _464
REMARK  191  A    between atoms: _464  and  _465
REMARK  192  A    between atoms: _468  and  _470
REMARK  193  A    between atoms: _470  and  _471
REMARK  194  A    between atoms: _470  and  _473
REMARK  195  A    between atoms: _473  and  _474
REMARK  196  A    between atoms: _478  and  _479
REMARK  197  A    between atoms: _484  and  _486
REMARK  198  A    between atoms: _486  and  _487
REMARK  199  A    between atoms: _486  and  _489
REMARK  200  A    between atoms: _492  and  _494
REMARK  201  A    between atoms: _494  and  _495
REMARK  202  A    between atoms: _494  and  _497
REMARK  203  A    between atoms: _497  and  _498
REMARK  204  A    between atoms: _503  and  _505
REMARK  205  A    between atoms: _505  and  _506
REMARK  206  A    between atoms: _505  and  _508
REMARK  207  A    between atoms: _508  and  _509
REMARK  208  A    between atoms: _512  and  _514
REMARK  209  A    between atoms: _514  and  _515
REMARK  210  A    between atoms: _514  and  _517
REMARK  211  A    between atoms: _517  and  _518
REMARK  212  A    between atoms: _521  and  _523
REMARK  213  A    between atoms: _523  and  _524
REMARK  214  A    between atoms: _526  and  _528
REMARK  215  A    between atoms: _528  and  _529
REMARK  216  A    between atoms: _528  and  _531
REMARK  217  A    between atoms: _531  and  _532
REMARK  218  A    between atoms: _532  and  _533
REMARK  219  A    between atoms: _533  and  _534
REMARK                            x       y       z     vdW  Elec       q    Type
REMARK                         _______ _______ _______ _____ _____    ______ ____
ROOT
ATOM      1  C   GLY A   5      18.802  19.452  18.498  0.00  0.00    +0.243 C 
ATOM      2  N   ALA A   6      18.777  19.780  19.788  0.00  0.00    -0.297 N 
ATOM      3  H   ALA A   6      18.845  19.020  20.495  0.00  0.00    +0.150 HD
ATOM      4  O   GLY A   5      18.727  20.297  17.616  0.00  0.00    -0.273 OA
ENDROOT
BRANCH   2   5
ATOM      5  CA  ALA A   6      18.658  21.170  20.259  0.00  0.00    +0.149 C 
ATOM      6  CB  ALA A   6      17.719  21.233  21.453  0.00  0.00    +0.031 C 
BRANCH   5   7
ATOM      7  C   ALA A   6      20.029  21.676  20.681  0.00  0.00    +0.241 C 
ATOM      8  O   ALA A   6      20.678  21.038  21.509  0.00  0.00    -0.273 OA
ATOM      9  N   ASP A   7      20.465  22.832  20.171  0.00  0.00    -0.297 N 
ATOM     10  H   ASP A   7      19.922  23.310  19.424  0.00  0.00    +0.150 HD
BRANCH   9  11
ATOM     11  CA  ASP A   7      21.736  23.436  20.677  0.00  0.00    +0.160 C 
BRANCH  11  12
ATOM     12  C   ASP A   7      21.584  23.891  22.121  0.00  0.00    +0.241 C 
ATOM     13  O   ASP A   7      22.508  23.767  22.953  0.00  0.00    -0.273 OA
ATOM     14  N   ASP A   8      20.375  24.410  22.405  0.00  0.00    -0.297 N 
ATOM     15  H   ASP A   8      19.601  24.255  21.728  0.00  0.00    +0.150 HD
BRANCH  14  16
ATOM     16  CA  ASP A   8      20.096  25.169  23.599  0.00  0.00    +0.160 C 
BRANCH  16  17
ATOM     17  C   ASP A   8      18.977  24.477  24.388  0.00  0.00    +0.241 C 
ATOM     18  N   THR A   9      18.805  24.933  25.619  0.00  0.00    -0.295 N 
ATOM     19  H   THR A   9      19.441  25.686  25.950  0.00  0.00    +0.150 HD
ATOM     20  O   ASP A   8      18.257  23.589  23.867  0.00  0.00    -0.273 OA
BRANCH  18  21
ATOM     21  CA  THR A   9      17.797  24.457  26.532  0.00  0.00    +0.176 C 
BRANCH  21  22
ATOM     22  C   THR A   9      16.685  25.499  26.559  0.00  0.00    +0.243 C 
ATOM     23  O   THR A   9      16.935  26.664  26.801  0.00  0.00    -0.273 OA
ATOM     24  N   VAL A  10      15.455  25.061  26.348  0.00  0.00    -0.298 N 
ATOM     25  H   VAL A  10      15.281  24.037  26.302  0.00  0.00    +0.150 HD
BRANCH  24  26
ATOM     26  CA  VAL A  10      14.336  25.983  26.178  0.00  0.00    +0.137 C 
BRANCH  26  27
ATOM     27  CB  VAL A  10      13.748  25.989  24.718  0.00  0.00    +0.026 C 
ATOM     28  CG2 VAL A  10      12.787  27.194  24.533  0.00  0.00    +0.002 C 
ATOM     29  CG1 VAL A  10      14.843  25.975  23.686  0.00  0.00    +0.002 C 
ENDBRANCH  26  27
BRANCH  26  30
ATOM     30  C   VAL A  10      13.244  25.538  27.097  0.00  0.00    +0.227 C 
ATOM     31  O   VAL A  10      12.747  24.427  26.957  0.00  0.00    -0.286 OA
ENDBRANCH  26  30
ENDBRANCH  24  26
ENDBRANCH  21  22
BRANCH  21  32
ATOM     32  CB  THR A   9      18.463  24.283  27.907  0.00  0.00    +0.137 C 
ATOM     33  CG2 THR A   9      17.449  24.028  29.042  0.00  0.00    +0.034 C 
BRANCH  32  34
ATOM     34  OG1 THR A   9      19.315  23.123  27.862  0.00  0.00    -0.382 OA
ATOM     35  HG1 THR A   9      20.007  23.250  27.166  0.00  0.00    +0.210 HD
ENDBRANCH  32  34
ENDBRANCH  21  32
ENDBRANCH  18  21
ENDBRANCH  16  17
BRANCH  16  36
ATOM     36  CB  ASP A   8      19.617  26.588  23.217  0.00  0.00    +0.143 C 
BRANCH  36  37
ATOM     37  CG  ASP A   8      20.525  27.277  22.195  0.00  0.00    +0.367 C 
ATOM     38  OD2 ASP A   8      21.754  27.363  22.412  0.00  0.00    -0.246 OA
ATOM     39  OD1 ASP A   8      20.084  27.760  21.140  0.00  0.00    -0.246 OA
ENDBRANCH  36  37
ENDBRANCH  16  36
ENDBRANCH  14  16
ENDBRANCH  11  12
BRANCH  11  40
ATOM     40  CB  ASP A   7      22.122  24.665  19.865  0.00  0.00    +0.143 C 
BRANCH  40  41
ATOM     41  CG  ASP A   7      22.349  24.380  18.403  0.00  0.00    +0.367 C 
ATOM     42  OD2 ASP A   7      22.631  23.222  17.980  0.00  0.00    -0.246 OA
ATOM     43  OD1 ASP A   7      22.301  25.323  17.587  0.00  0.00    -0.246 OA
ENDBRANCH  40  41
ENDBRANCH  11  40
ENDBRANCH   9  11
ENDBRANCH   5   7
ENDBRANCH   2   5
BRANCH   1  44
ATOM     44  CA  GLY A   5      18.899  17.970  18.150  0.00  0.00    +0.176 C 
BRANCH  44  47
ATOM     45  C   THR A   4      20.139  16.832  19.874  0.00  0.00    +0.243 C 
ATOM     46  O   THR A   4      21.190  17.258  19.398  0.00  0.00    -0.273 OA
ATOM     47  N   GLY A   5      18.965  17.084  19.309  0.00  0.00    -0.295 N 
ATOM     48  H   GLY A   5      18.098  16.653  19.689  0.00  0.00    +0.150 HD
BRANCH  45  49
ATOM     49  CA  THR A   4      20.146  15.986  21.156  0.00  0.00    +0.176 C 
BRANCH  49  52
ATOM     50  C   ASP A   3      18.172  16.834  22.347  0.00  0.00    +0.241 C 
ATOM     51  O   ASP A   3      18.672  17.939  22.463  0.00  0.00    -0.273 OA
ATOM     52  N   THR A   4      18.786  15.820  21.719  0.00  0.00    -0.295 N 
ATOM     53  H   THR A   4      18.301  14.905  21.626  0.00  0.00    +0.150 HD
BRANCH  50  54
ATOM     54  CA  ASP A   3      16.798  16.572  22.921  0.00  0.00    +0.160 C 
BRANCH  54  56
ATOM     55  C   LEU A   2      16.395  15.234  24.919  0.00  0.00    +0.241 C 
ATOM     56  N   ASP A   3      16.915  16.319  24.355  0.00  0.00    -0.297 N 
ATOM     57  H   ASP A   3      17.419  17.007  24.951  0.00  0.00    +0.150 HD
ATOM     58  O   LEU A   2      16.038  14.245  24.281  0.00  0.00    -0.273 OA
BRANCH  55  59
ATOM     59  CA  LEU A   2      16.278  15.264  26.449  0.00  0.00    +0.149 C 
BRANCH  59  61
ATOM     60  C   LEU A   1      14.119  16.384  26.757  0.00  0.00    +0.238 C 
ATOM     61  N   LEU A   2      14.846  15.266  26.838  0.00  0.00    -0.297 N 
ATOM     62  H   LEU A   2      14.404  14.388  27.177  0.00  0.00    +0.150 HD
ATOM     63  O   LEU A   1      14.623  17.474  26.498  0.00  0.00    -0.274 OA
BRANCH  60  64
ATOM     64  CA  LEU A   1      12.605  16.292  27.002  0.00  0.00    +0.145 C 
BRANCH  64  65
ATOM     65  N   LEU A   1      12.249  17.209  28.084  0.00  0.00    -0.238 NA
ATOM     66  H   LEU A   1      12.040  18.197  27.835  0.00  0.00    +0.142 HD
ENDBRANCH  64  65
BRANCH  64  67
ATOM     67  CB  LEU A   1      11.843  16.729  25.747  0.00  0.00    +0.026 C 
BRANCH  67  68
ATOM     68  CG  LEU A   1      11.970  15.863  24.488  0.00  0.00    +0.002 C 
ATOM     69  CD2 LEU A   1      11.316  14.512  24.730  0.00  0.00    +0.000 C 
ATOM     70  CD1 LEU A   1      11.337  16.596  23.298  0.00  0.00    +0.000 C 
ENDBRANCH  67  68
ENDBRANCH  64  67
ENDBRANCH  60  64
ENDBRANCH  59  61
BRANCH  59  71
ATOM     71  CB  LEU A   2      17.010  14.034  27.021  0.00  0.00    +0.029 C 
BRANCH  71  72
ATOM     72  CG  LEU A   2      16.862  13.810  28.522  0.00  0.00    +0.002 C 
ATOM     73  CD2 LEU A   2      17.287  15.086  29.297  0.00  0.00    +0.000 C 
ATOM     74  CD1 LEU A   2      17.704  12.612  28.874  0.00  0.00    +0.000 C 
ENDBRANCH  71  72
ENDBRANCH  59  71
ENDBRANCH  55  59
ENDBRANCH  54  56
BRANCH  54  75
ATOM     75  CB  ASP A   3      15.871  17.781  22.680  0.00  0.00    +0.143 C 
BRANCH  75  76
ATOM     76  CG  ASP A   3      15.540  17.986  21.186  0.00  0.00    +0.367 C 
ATOM     77  OD2 ASP A   3      14.397  18.237  20.722  0.00  0.00    -0.246 OA
ATOM     78  OD1 ASP A   3      16.445  17.911  20.373  0.00  0.00    -0.246 OA
ENDBRANCH  75  76
ENDBRANCH  54  75
ENDBRANCH  50  54
ENDBRANCH  49  52
BRANCH  49  79
ATOM     79  CB  THR A   4      20.814  14.632  20.887  0.00  0.00    +0.137 C 
ATOM     80  CG2 THR A   4      20.995  13.820  22.202  0.00  0.00    +0.034 C 
BRANCH  79  81
ATOM     81  OG1 THR A   4      19.938  13.829  20.060  0.00  0.00    -0.382 OA
ATOM     82  HG1 THR A   4      19.775  14.297  19.203  0.00  0.00    +0.210 HD
ENDBRANCH  79  81
ENDBRANCH  49  79
ENDBRANCH  45  49
ENDBRANCH  44  47
ENDBRANCH   1  44
TORSDOF 35
REMARK  Name = ../refined-set-2016/2o4p/2o4p_pocket.pdb
REMARK  219 active torsions:
REMARK  status: ('A' for Active; 'I' for Inactive)
REMARK    1  A    between atoms: _1  and  _3
REMARK    2  A    between atoms: _3  and  _4
REMARK    3  A    between atoms: _3  and  _6
REMARK    4  A    between atoms: _6  and  _7
REMARK    5  A    between atoms: _7  and  _8
REMARK    6  A    between atoms: _8  and  _9
REMARK    7  A    between atoms: _18  and  _20
REMARK    8  A    between atoms: _20  and  _21
REMARK    9  A    between atoms: _20  and  _23
REMARK   10  A    between atoms: _23  and  _24
REMARK   11  A    between atoms: _27  and  _29
REMARK   12  A    between atoms: _29  and  _30
REMARK   13  A    between atoms: _29  and  _32
REMARK   14  A    between atoms: _32  and  _33
REMARK   15  A    between atoms: _36  and  _38
REMARK   16  A    between atoms: _38  and  _39
REMARK   17  A    between atoms: _38  and  _41
REMARK   18  A    between atoms: _41  and  _42
REMARK   19  A    between atoms: _45  and  _47
REMARK   20  A    between atoms: _47  and  _48
REMARK   21  A    between atoms: _47  and  _50
REMARK   22  A    between atoms: _50  and  _51
REMARK   23  A    between atoms: _54  and  _56
REMARK   24  A    between atoms: _56  and  _57
REMARK   25  A    between atoms: _56  and  _59
REMARK   26  A    between atoms: _59  and  _60
REMARK   27  A    between atoms: _63  and  _65
REMARK   28  A    between atoms: _65  and  _66
REMARK   29  A    between atoms: _68  and  _70
REMARK   30  A    between atoms: _70  and  _71
REMARK   31  A    between atoms: _74  and  _76
REMARK   32  A    between atoms: _76  and  _77
REMARK   33  A    between atoms: _76  and  _79
REMARK   34  A    between atoms: _79  and  _80
REMARK   35  A    between atoms: _83  and  _85
REMARK   36  A    between atoms: _85  and  _86
REMARK   37  A    between atoms: _85  and  _88
REMARK   38  A    between atoms: _88  and  _89
REMARK   39  A    between atoms: _92  and  _94
REMARK   40  A    between atoms: _94  and  _95
REMARK   41  A    between atoms: _94  and  _97
REMARK   42  A    between atoms: _97  and  _98
REMARK   43  A    between atoms: _101  and  _103
REMARK   44  A    between atoms: _103  and  _104
REMARK   45  A    between atoms: _103  and  _106
REMARK   46  A    between atoms: _109  and  _111
REMARK   47  A    between atoms: _111  and  _112
REMARK   48  A    between atoms: _111  and  _114
REMARK   49  A    between atoms: _114  and  _115
REMARK   50  A    between atoms: _115  and  _116
REMARK   51  A    between atoms: _116  and  _117
REMARK   52  A    between atoms: _117  and  _118
REMARK   53  A    between atoms: _122  and  _124
REMARK   54  A    between atoms: _124  and  _125
REMARK   55  A    between atoms: _124  and  _127
REMARK   56  A    between atoms: _127  and  _128
REMARK   57  A    between atoms: _128  and  _129
REMARK   58  A    between atoms: _131  and  _133
REMARK   59  A    between atoms: _133  and  _134
REMARK   60  A    between atoms: _133  and  _136
REMARK   61  A    between atoms: _136  and  _137
REMARK   62  A    between atoms: _140  and  _142
REMARK   63  A    between atoms: _142  and  _143
REMARK   64  A    between atoms: _145  and  _147
REMARK   65  A    between atoms: _147  and  _148
REMARK   66  A    between atoms: _150  and  _152
REMARK   67  A    between atoms: _152  and  _153
REMARK   68  A    between atoms: _152  and  _155
REMARK   69  A    between atoms: _155  and  _156
REMARK   70  A    between atoms: _159  and  _161
REMARK   71  A    between atoms: _161  and  _162
REMARK   72  A    between atoms: _164  and  _166
REMARK   73  A    between atoms: _166  and  _167
REMARK   74  A    between atoms: _169  and  _171
REMARK   75  A    between atoms: _171  and  _172
REMARK   76  A    between atoms: _171  and  _174
REMARK   77  A    between atoms: _174  and  _175
REMARK   78  A    between atoms: _181  and  _183
REMARK   79  A    between atoms: _183  and  _184
REMARK   80  A    between atoms: _183  and  _186
REMARK   81  A    between atoms: _186  and  _187
REMARK   82  A    between atoms: _190  and  _192
REMARK   83  A    between atoms: _192  and  _193
REMARK   84  A    between atoms: _192  and  _195
REMARK   85  A    between atoms: _195  and  _196
REMARK   86  A    between atoms: _199  and  _201
REMARK   87  A    between atoms: _201  and  _202
REMARK   88  A    between atoms: _201  and  _204
REMARK   89  A    between atoms: _204  and  _205
REMARK   90  A    between atoms: _209  and  _210
REMARK   91  A    between atoms: _215  and  _217
REMARK   92  A    between atoms: _217  and  _218
REMARK   93  A    between atoms: _217  and  _220
REMARK   94  A    between atoms: _223  and  _225
REMARK   95  A    between atoms: _225  and  _226
REMARK   96  A    between atoms: _225  and  _228
REMARK   97  A    between atoms: _228  and  _229
REMARK   98  A    between atoms: _234  and  _236
REMARK   99  A    between atoms: _236  and  _237
REMARK  100  A    between atoms: _236  and  _239
REMARK  101  A    between atoms: _239  and  _240
REMARK  102  A    between atoms: _243  and  _245
REMARK  103  A    between atoms: _245  and  _246
REMARK  104  A    between atoms: _245  and  _248
REMARK  105  A    between atoms: _248  and  _249
REMARK  106  A    between atoms: _252  and  _254
REMARK  107  A    between atoms: _254  and  _255
REMARK  108  A    between atoms: _257  and  _259
REMARK  109  A    between atoms: _259  and  _260
REMARK  110  A    between atoms: _259  and  _262
REMARK  111  A    between atoms: _262  and  _263
REMARK  112  A    between atoms: _263  and  _264
REMARK  113  A    between atoms: _264  and  _265
REMARK  114  A    between atoms: _274  and  _276
REMARK  115  A    between atoms: _276  and  _277
REMARK  116  A    between atoms: _276  and  _279
REMARK  117  A    between atoms: _279  and  _280
REMARK  118  A    between atoms: _285  and  _287
REMARK  119  A    between atoms: _287  and  _288
REMARK  120  A    between atoms: _287  and  _290
REMARK  121  A    between atoms: _290  and  _291
REMARK  122  A    between atoms: _291  and  _292
REMARK  123  A    between atoms: _292  and  _293
REMARK  124  A    between atoms: _303  and  _304
REMARK  125  A    between atoms: _309  and  _311
REMARK  126  A    between atoms: _311  and  _312
REMARK  127  A    between atoms: _311  and  _314
REMARK  128  A    between atoms: _314  and  _315
REMARK  129  A    between atoms: _318  and  _320
REMARK  130  A    between atoms: _320  and  _321
REMARK  131  A    between atoms: _320  and  _323
REMARK  132  A    between atoms: _323  and  _324
REMARK  133  A    between atoms: _327  and  _329
REMARK  134  A    between atoms: _329  and  _330
REMARK  135  A    between atoms: _329  and  _332
REMARK  136  A    between atoms: _332  and  _333
REMARK  137  A    between atoms: _336  and  _338
REMARK  138  A    between atoms: _338  and  _339
REMARK  139  A    between atoms: _338  and  _341
REMARK  140  A    between atoms: _341  and  _342
REMARK  141  A    between atoms: _345  and  _347
REMARK  142  A    between atoms: _347  and  _348
REMARK  143  A    between atoms: _347  and  _350
REMARK  144  A    between atoms: _350  and  _351
REMARK  145  A    between atoms: _354  and  _356
REMARK  146  A    between atoms: _356  and  _357
REMARK  147  A    between atoms: _359  and  _361
REMARK  148  A    between atoms: _361  and  _362
REMARK  149  A    between atoms: _365  and  _367
REMARK  150  A    between atoms: _367  and  _368
REMARK  151  A    between atoms: _367  and  _370
REMARK  152  A    between atoms: _370  and  _371
REMARK  153  A    between atoms: _374  and  _376
REMARK  154  A    between atoms: _376  and  _377
REMARK  155  A    between atoms: _376  and  _379
REMARK  156  A    between atoms: _379  and  _380
REMARK  157  A    between atoms: _383  and  _385
REMARK  158  A    between atoms: _385  and  _386
REMARK  159  A    between atoms: _385  and  _388
REMARK  160  A    between atoms: _388  and  _389
REMARK  161  A    between atoms: _392  and  _394
REMARK  162  A    between atoms: _394  and  _395
REMARK  163  A    between atoms: _394  and  _397
REMARK  164  A    between atoms: _400  and  _402
REMARK  165  A    between atoms: _402  and  _403
REMARK  166  A    between atoms: _402  and  _405
REMARK  167  A    between atoms: _405  and  _406
REMARK  168  A    between atoms: _409  and  _411
REMARK  169  A    between atoms: _411  and  _412
REMARK  170  A    between atoms: _414  and  _416
REMARK  171  A    between atoms: _416  and  _417
REMARK  172  A    between atoms: _419  and  _421
REMARK  173  A    between atoms: _421  and  _422
REMARK  174  A    between atoms: _421  and  _424
REMARK  175  A    between atoms: _424  and  _425
REMARK  176  A    between atoms: _428  and  _430
REMARK  177  A    between atoms: _430  and  _431
REMARK  178  A    between atoms: _433  and  _435
REMARK  179  A    between atoms: _435  and  _436
REMARK  180  A    between atoms: _438  and  _440
REMARK  181  A    between atoms: _440  and  _441
REMARK  182  A    between atoms: _440  and  _443
REMARK  183  A    between atoms: _443  and  _444
REMARK  184  A    between atoms: _450  and  _452
REMARK  185  A    between atoms: _452  and  _453
REMARK  186  A    between atoms: _452  and  _455
REMARK  187  A    between atoms: _455  and  _456
REMARK  188  A    between atoms: _459  and  _461
REMARK  189  A    between atoms: _461  and  _462
REMARK  190  A    between atoms: _461  and  _464
REMARK  191  A    between atoms: _464  and  _465
REMARK  192  A    between atoms: _468  and  _470
REMARK  193  A    between atoms: _470  and  _471
REMARK  194  A    between atoms: _470  and  _473
REMARK  195  A    between atoms: _473  and  _474
REMARK  196  A    between atoms: _478  and  _479
REMARK  197  A    between atoms: _484  and  _486
REMARK  198  A    between atoms: _486  and  _487
REMARK  199  A    between atoms: _486  and  _489
REMARK  200  A    between atoms: _492  and  _494
REMARK  201  A    between atoms: _494  and  _495
REMARK  202  A    between atoms: _494  and  _497
REMARK  203  A    between atoms: _497  and  _498
REMARK  204  A    between atoms: _503  and  _505
REMARK  205  A    between atoms: _505  and  _506
REMARK  206  A    between atoms: _505  and  _508
REMARK  207  A    between atoms: _508  and  _509
REMARK  208  A    between atoms: _512  and  _514
REMARK  209  A    between atoms: _514  and  _515
REMARK  210  A    between atoms: _514  and  _517
REMARK  211  A    between atoms: _517  and  _518
REMARK  212  A    between atoms: _521  and  _523
REMARK  213  A    between atoms: _523  and  _524
REMARK  214  A    between atoms: _526  and  _528
REMARK  215  A    between atoms: _528  and  _529
REMARK  216  A    between atoms: _528  and  _531
REMARK  217  A    between atoms: _531  and  _532
REMARK  218  A    between atoms: _532  and  _533
REMARK  219  A    between atoms: _533  and  _534
REMARK                            x       y       z     vdW  Elec       q    Type
REMARK                         _______ _______ _______ _____ _____    ______ ____
ROOT
ATOM      1  C   ILE A   4       9.962  23.764  11.986  0.00  0.00    +0.241 C 
ATOM      2  N   GLY A   5       9.265  24.475  12.869  0.00  0.00    -0.295 N 
ATOM      3  H   GLY A   5       9.504  24.421  13.880  0.00  0.00    +0.150 HD
ATOM      4  O   ILE A   4       9.732  23.786  10.771  0.00  0.00    -0.273 OA
ENDROOT
BRANCH   2   5
ATOM      5  CA  GLY A   5       8.153  25.341  12.423  0.00  0.00    +0.176 C 
BRANCH   5   6
ATOM      6  C   GLY A   5       8.498  26.803  12.151  0.00  0.00    +0.243 C 
ATOM      7  N   GLY A   6       9.766  27.168  12.343  0.00  0.00    -0.295 N 
ATOM      8  H   GLY A   6      10.455  26.444  12.631  0.00  0.00    +0.150 HD
ATOM      9  O   GLY A   5       7.634  27.585  11.770  0.00  0.00    -0.273 OA
BRANCH   7  10
ATOM     10  CA  GLY A   6      10.228  28.542  12.166  0.00  0.00    +0.176 C 
BRANCH  10  11
ATOM     11  C   GLY A   6      10.987  29.100  13.374  0.00  0.00    +0.243 C 
ATOM     12  O   GLY A   6      11.405  28.364  14.267  0.00  0.00    -0.273 OA
ATOM     13  N   PHE A   7      11.138  30.417  13.405  0.00  0.00    -0.297 N 
ATOM     14  H   PHE A   7      10.743  30.988  12.631  0.00  0.00    +0.150 HD
BRANCH  13  15
ATOM     15  CA  PHE A   7      11.841  31.088  14.492  0.00  0.00    +0.153 C 
BRANCH  15  16
ATOM     16  C   PHE A   7      10.933  31.530  15.631  0.00  0.00    +0.241 C 
ATOM     17  N   ILE A   8      11.486  31.493  16.844  0.00  0.00    -0.298 N 
ATOM     18  H   ILE A   8      12.415  31.037  16.952  0.00  0.00    +0.150 HD
ATOM     19  O   PHE A   7       9.757  31.868  15.420  0.00  0.00    -0.273 OA
BRANCH  17  20
ATOM     20  CA  ILE A   8      10.845  32.065  18.031  0.00  0.00    +0.137 C 
BRANCH  20  21
ATOM     21  C   ILE A   8      11.816  32.972  18.766  0.00  0.00    +0.227 C 
ATOM     22  O   ILE A   8      13.053  32.792  18.712  0.00  0.00    -0.286 OA
ENDBRANCH  20  21
BRANCH  20  23
ATOM     23  CB  ILE A   8      10.255  30.997  19.016  0.00  0.00    +0.026 C 
ATOM     24  CG2 ILE A   8       9.062  30.230  18.382  0.00  0.00    +0.002 C 
BRANCH  23  25
ATOM     25  CG1 ILE A   8      11.357  30.077  19.600  0.00  0.00    +0.002 C 
ATOM     26  CD1 ILE A   8      10.925  29.278  20.820  0.00  0.00    +0.000 C 
ENDBRANCH  23  25
ENDBRANCH  20  23
ENDBRANCH  17  20
ENDBRANCH  15  16
BRANCH  15  27
ATOM     27  CB  PHE A   7      12.617  32.299  13.960  0.00  0.00    +0.055 C 
BRANCH  27  28
ATOM     28  CG  PHE A   7      13.725  31.933  13.052  0.00  0.00    -0.020 A 
ATOM     29  CD2 PHE A   7      14.973  31.602  13.569  0.00  0.00    -0.004 A 
ATOM     30  CE2 PHE A   7      16.012  31.243  12.728  0.00  0.00    -0.000 A 
ATOM     31  CZ  PHE A   7      15.800  31.192  11.354  0.00  0.00    -0.000 A 
ATOM     32  CE1 PHE A   7      14.560  31.521  10.825  0.00  0.00    -0.000 A 
ATOM     33  CD1 PHE A   7      13.524  31.880  11.669  0.00  0.00    -0.004 A 
ENDBRANCH  27  28
ENDBRANCH  15  27
ENDBRANCH  13  15
ENDBRANCH  10  11
ENDBRANCH   7  10
ENDBRANCH   5   6
ENDBRANCH   2   5
BRANCH   1  34
ATOM     34  CA  ILE A   4      11.096  22.876  12.523  0.00  0.00    +0.149 C 
BRANCH  34  36
ATOM     35  C   GLY A   3      12.347  24.524  13.768  0.00  0.00    +0.243 C 
ATOM     36  N   ILE A   4      11.703  23.359  13.763  0.00  0.00    -0.297 N 
ATOM     37  H   ILE A   4      11.632  22.796  14.635  0.00  0.00    +0.150 HD
ATOM     38  O   GLY A   3      12.402  25.251  12.775  0.00  0.00    -0.273 OA
BRANCH  35  39
ATOM     39  CA  GLY A   3      12.982  24.950  15.081  0.00  0.00    +0.176 C 
BRANCH  39  42
ATOM     40  C   GLY A   2      14.568  26.772  15.300  0.00  0.00    +0.243 C 
ATOM     41  O   GLY A   2      15.410  26.055  15.813  0.00  0.00    -0.273 OA
ATOM     42  N   GLY A   3      13.353  26.353  14.998  0.00  0.00    -0.295 N 
ATOM     43  H   GLY A   3      12.641  27.047  14.692  0.00  0.00    +0.150 HD
BRANCH  40  44
ATOM     44  CA  GLY A   2      14.855  28.207  14.997  0.00  0.00    +0.176 C 
BRANCH  44  47
ATOM     45  C   ILE A   1      15.162  29.806  16.786  0.00  0.00    +0.238 C 
ATOM     46  O   ILE A   1      14.000  30.212  16.707  0.00  0.00    -0.274 OA
ATOM     47  N   GLY A   2      15.646  28.818  16.046  0.00  0.00    -0.296 N 
ATOM     48  H   GLY A   2      16.612  28.475  16.222  0.00  0.00    +0.150 HD
BRANCH  45  49
ATOM     49  CA  ILE A   1      16.141  30.420  17.797  0.00  0.00    +0.145 C 
BRANCH  49  50
ATOM     50  N   ILE A   1      15.721  31.777  18.135  0.00  0.00    -0.238 NA
ATOM     51  H   ILE A   1      14.739  31.962  18.422  0.00  0.00    +0.142 HD
ENDBRANCH  49  50
BRANCH  49  52
ATOM     52  CB  ILE A   1      16.248  29.520  19.061  0.00  0.00    +0.025 C 
ATOM     53  CG2 ILE A   1      17.389  29.990  19.969  0.00  0.00    +0.002 C 
BRANCH  52  54
ATOM     54  CG1 ILE A   1      14.893  29.420  19.784  0.00  0.00    +0.002 C 
ATOM     55  CD1 ILE A   1      14.860  28.377  20.904  0.00  0.00    +0.000 C 
ENDBRANCH  52  54
ENDBRANCH  49  52
ENDBRANCH  45  49
ENDBRANCH  44  47
ENDBRANCH  40  44
ENDBRANCH  39  42
ENDBRANCH  35  39
ENDBRANCH  34  36
BRANCH  34  56
ATOM     56  CB  ILE A   4      10.591  21.392  12.618  0.00  0.00    +0.027 C 
ATOM     57  CG2 ILE A   4      11.774  20.411  12.845  0.00  0.00    +0.002 C 
BRANCH  56  58
ATOM     58  CG1 ILE A   4       9.401  21.297  13.569  0.00  0.00    +0.002 C 
ATOM     59  CD1 ILE A   4       8.447  20.163  13.256  0.00  0.00    +0.000 C 
ENDBRANCH  56  58
ENDBRANCH  34  56
ENDBRANCH   1  34
TORSDOF 24
REMARK  Name = ../refined-set-2016/2o4p/2o4p_pocket.pdb
REMARK  219 active torsions:
REMARK  status: ('A' for Active; 'I' for Inactive)
REMARK    1  A    between atoms: _1  and  _3
REMARK    2  A    between atoms: _3  and  _4
REMARK    3  A    between atoms: _3  and  _6
REMARK    4  A    between atoms: _6  and  _7
REMARK    5  A    between atoms: _7  and  _8
REMARK    6  A    between atoms: _8  and  _9
REMARK    7  A    between atoms: _18  and  _20
REMARK    8  A    between atoms: _20  and  _21
REMARK    9  A    between atoms: _20  and  _23
REMARK   10  A    between atoms: _23  and  _24
REMARK   11  A    between atoms: _27  and  _29
REMARK   12  A    between atoms: _29  and  _30
REMARK   13  A    between atoms: _29  and  _32
REMARK   14  A    between atoms: _32  and  _33
REMARK   15  A    between atoms: _36  and  _38
REMARK   16  A    between atoms: _38  and  _39
REMARK   17  A    between atoms: _38  and  _41
REMARK   18  A    between atoms: _41  and  _42
REMARK   19  A    between atoms: _45  and  _47
REMARK   20  A    between atoms: _47  and  _48
REMARK   21  A    between atoms: _47  and  _50
REMARK   22  A    between atoms: _50  and  _51
REMARK   23  A    between atoms: _54  and  _56
REMARK   24  A    between atoms: _56  and  _57
REMARK   25  A    between atoms: _56  and  _59
REMARK   26  A    between atoms: _59  and  _60
REMARK   27  A    between atoms: _63  and  _65
REMARK   28  A    between atoms: _65  and  _66
REMARK   29  A    between atoms: _68  and  _70
REMARK   30  A    between atoms: _70  and  _71
REMARK   31  A    between atoms: _74  and  _76
REMARK   32  A    between atoms: _76  and  _77
REMARK   33  A    between atoms: _76  and  _79
REMARK   34  A    between atoms: _79  and  _80
REMARK   35  A    between atoms: _83  and  _85
REMARK   36  A    between atoms: _85  and  _86
REMARK   37  A    between atoms: _85  and  _88
REMARK   38  A    between atoms: _88  and  _89
REMARK   39  A    between atoms: _92  and  _94
REMARK   40  A    between atoms: _94  and  _95
REMARK   41  A    between atoms: _94  and  _97
REMARK   42  A    between atoms: _97  and  _98
REMARK   43  A    between atoms: _101  and  _103
REMARK   44  A    between atoms: _103  and  _104
REMARK   45  A    between atoms: _103  and  _106
REMARK   46  A    between atoms: _109  and  _111
REMARK   47  A    between atoms: _111  and  _112
REMARK   48  A    between atoms: _111  and  _114
REMARK   49  A    between atoms: _114  and  _115
REMARK   50  A    between atoms: _115  and  _116
REMARK   51  A    between atoms: _116  and  _117
REMARK   52  A    between atoms: _117  and  _118
REMARK   53  A    between atoms: _122  and  _124
REMARK   54  A    between atoms: _124  and  _125
REMARK   55  A    between atoms: _124  and  _127
REMARK   56  A    between atoms: _127  and  _128
REMARK   57  A    between atoms: _128  and  _129
REMARK   58  A    between atoms: _131  and  _133
REMARK   59  A    between atoms: _133  and  _134
REMARK   60  A    between atoms: _133  and  _136
REMARK   61  A    between atoms: _136  and  _137
REMARK   62  A    between atoms: _140  and  _142
REMARK   63  A    between atoms: _142  and  _143
REMARK   64  A    between atoms: _145  and  _147
REMARK   65  A    between atoms: _147  and  _148
REMARK   66  A    between atoms: _150  and  _152
REMARK   67  A    between atoms: _152  and  _153
REMARK   68  A    between atoms: _152  and  _155
REMARK   69  A    between atoms: _155  and  _156
REMARK   70  A    between atoms: _159  and  _161
REMARK   71  A    between atoms: _161  and  _162
REMARK   72  A    between atoms: _164  and  _166
REMARK   73  A    between atoms: _166  and  _167
REMARK   74  A    between atoms: _169  and  _171
REMARK   75  A    between atoms: _171  and  _172
REMARK   76  A    between atoms: _171  and  _174
REMARK   77  A    between atoms: _174  and  _175
REMARK   78  A    between atoms: _181  and  _183
REMARK   79  A    between atoms: _183  and  _184
REMARK   80  A    between atoms: _183  and  _186
REMARK   81  A    between atoms: _186  and  _187
REMARK   82  A    between atoms: _190  and  _192
REMARK   83  A    between atoms: _192  and  _193
REMARK   84  A    between atoms: _192  and  _195
REMARK   85  A    between atoms: _195  and  _196
REMARK   86  A    between atoms: _199  and  _201
REMARK   87  A    between atoms: _201  and  _202
REMARK   88  A    between atoms: _201  and  _204
REMARK   89  A    between atoms: _204  and  _205
REMARK   90  A    between atoms: _209  and  _210
REMARK   91  A    between atoms: _215  and  _217
REMARK   92  A    between atoms: _217  and  _218
REMARK   93  A    between atoms: _217  and  _220
REMARK   94  A    between atoms: _223  and  _225
REMARK   95  A    between atoms: _225  and  _226
REMARK   96  A    between atoms: _225  and  _228
REMARK   97  A    between atoms: _228  and  _229
REMARK   98  A    between atoms: _234  and  _236
REMARK   99  A    between atoms: _236  and  _237
REMARK  100  A    between atoms: _236  and  _239
REMARK  101  A    between atoms: _239  and  _240
REMARK  102  A    between atoms: _243  and  _245
REMARK  103  A    between atoms: _245  and  _246
REMARK  104  A    between atoms: _245  and  _248
REMARK  105  A    between atoms: _248  and  _249
REMARK  106  A    between atoms: _252  and  _254
REMARK  107  A    between atoms: _254  and  _255
REMARK  108  A    between atoms: _257  and  _259
REMARK  109  A    between atoms: _259  and  _260
REMARK  110  A    between atoms: _259  and  _262
REMARK  111  A    between atoms: _262  and  _263
REMARK  112  A    between atoms: _263  and  _264
REMARK  113  A    between atoms: _264  and  _265
REMARK  114  A    between atoms: _274  and  _276
REMARK  115  A    between atoms: _276  and  _277
REMARK  116  A    between atoms: _276  and  _279
REMARK  117  A    between atoms: _279  and  _280
REMARK  118  A    between atoms: _285  and  _287
REMARK  119  A    between atoms: _287  and  _288
REMARK  120  A    between atoms: _287  and  _290
REMARK  121  A    between atoms: _290  and  _291
REMARK  122  A    between atoms: _291  and  _292
REMARK  123  A    between atoms: _292  and  _293
REMARK  124  A    between atoms: _303  and  _304
REMARK  125  A    between atoms: _309  and  _311
REMARK  126  A    between atoms: _311  and  _312
REMARK  127  A    between atoms: _311  and  _314
REMARK  128  A    between atoms: _314  and  _315
REMARK  129  A    between atoms: _318  and  _320
REMARK  130  A    between atoms: _320  and  _321
REMARK  131  A    between atoms: _320  and  _323
REMARK  132  A    between atoms: _323  and  _324
REMARK  133  A    between atoms: _327  and  _329
REMARK  134  A    between atoms: _329  and  _330
REMARK  135  A    between atoms: _329  and  _332
REMARK  136  A    between atoms: _332  and  _333
REMARK  137  A    between atoms: _336  and  _338
REMARK  138  A    between atoms: _338  and  _339
REMARK  139  A    between atoms: _338  and  _341
REMARK  140  A    between atoms: _341  and  _342
REMARK  141  A    between atoms: _345  and  _347
REMARK  142  A    between atoms: _347  and  _348
REMARK  143  A    between atoms: _347  and  _350
REMARK  144  A    between atoms: _350  and  _351
REMARK  145  A    between atoms: _354  and  _356
REMARK  146  A    between atoms: _356  and  _357
REMARK  147  A    between atoms: _359  and  _361
REMARK  148  A    between atoms: _361  and  _362
REMARK  149  A    between atoms: _365  and  _367
REMARK  150  A    between atoms: _367  and  _368
REMARK  151  A    between atoms: _367  and  _370
REMARK  152  A    between atoms: _370  and  _371
REMARK  153  A    between atoms: _374  and  _376
REMARK  154  A    between atoms: _376  and  _377
REMARK  155  A    between atoms: _376  and  _379
REMARK  156  A    between atoms: _379  and  _380
REMARK  157  A    between atoms: _383  and  _385
REMARK  158  A    between atoms: _385  and  _386
REMARK  159  A    between atoms: _385  and  _388
REMARK  160  A    between atoms: _388  and  _389
REMARK  161  A    between atoms: _392  and  _394
REMARK  162  A    between atoms: _394  and  _395
REMARK  163  A    between atoms: _394  and  _397
REMARK  164  A    between atoms: _400  and  _402
REMARK  165  A    between atoms: _402  and  _403
REMARK  166  A    between atoms: _402  and  _405
REMARK  167  A    between atoms: _405  and  _406
REMARK  168  A    between atoms: _409  and  _411
REMARK  169  A    between atoms: _411  and  _412
REMARK  170  A    between atoms: _414  and  _416
REMARK  171  A    between atoms: _416  and  _417
REMARK  172  A    between atoms: _419  and  _421
REMARK  173  A    between atoms: _421  and  _422
REMARK  174  A    between atoms: _421  and  _424
REMARK  175  A    between atoms: _424  and  _425
REMARK  176  A    between atoms: _428  and  _430
REMARK  177  A    between atoms: _430  and  _431
REMARK  178  A    between atoms: _433  and  _435
REMARK  179  A    between atoms: _435  and  _436
REMARK  180  A    between atoms: _438  and  _440
REMARK  181  A    between atoms: _440  and  _441
REMARK  182  A    between atoms: _440  and  _443
REMARK  183  A    between atoms: _443  and  _444
REMARK  184  A    between atoms: _450  and  _452
REMARK  185  A    between atoms: _452  and  _453
REMARK  186  A    between atoms: _452  and  _455
REMARK  187  A    between atoms: _455  and  _456
REMARK  188  A    between atoms: _459  and  _461
REMARK  189  A    between atoms: _461  and  _462
REMARK  190  A    between atoms: _461  and  _464
REMARK  191  A    between atoms: _464  and  _465
REMARK  192  A    between atoms: _468  and  _470
REMARK  193  A    between atoms: _470  and  _471
REMARK  194  A    between atoms: _470  and  _473
REMARK  195  A    between atoms: _473  and  _474
REMARK  196  A    between atoms: _478  and  _479
REMARK  197  A    between atoms: _484  and  _486
REMARK  198  A    between atoms: _486  and  _487
REMARK  199  A    between atoms: _486  and  _489
REMARK  200  A    between atoms: _492  and  _494
REMARK  201  A    between atoms: _494  and  _495
REMARK  202  A    between atoms: _494  and  _497
REMARK  203  A    between atoms: _497  and  _498
REMARK  204  A    between atoms: _503  and  _505
REMARK  205  A    between atoms: _505  and  _506
REMARK  206  A    between atoms: _505  and  _508
REMARK  207  A    between atoms: _508  and  _509
REMARK  208  A    between atoms: _512  and  _514
REMARK  209  A    between atoms: _514  and  _515
REMARK  210  A    between atoms: _514  and  _517
REMARK  211  A    between atoms: _517  and  _518
REMARK  212  A    between atoms: _521  and  _523
REMARK  213  A    between atoms: _523  and  _524
REMARK  214  A    between atoms: _526  and  _528
REMARK  215  A    between atoms: _528  and  _529
REMARK  216  A    between atoms: _528  and  _531
REMARK  217  A    between atoms: _531  and  _532
REMARK  218  A    between atoms: _532  and  _533
REMARK  219  A    between atoms: _533  and  _534
REMARK                            x       y       z     vdW  Elec       q    Type
REMARK                         _______ _______ _______ _____ _____    ______ ____
ROOT
ATOM      1  CA  LEU A   1      16.080  30.150  27.332  0.00  0.00    +0.133 C 
ENDROOT
BRANCH   1   2
ATOM      2  N   LEU A   1      16.908  29.232  28.106  0.00  0.00    -0.239 NA
ATOM      3  H   LEU A   1      16.962  28.235  27.816  0.00  0.00    +0.142 HD
ENDBRANCH   1   2
BRANCH   1   4
ATOM      4  C   LEU A   1      14.622  29.902  27.706  0.00  0.00    +0.224 C 
ATOM      5  O   LEU A   1      14.216  28.751  27.941  0.00  0.00    -0.287 OA
ENDBRANCH   1   4
BRANCH   1   6
ATOM      6  CB  LEU A   1      16.299  29.942  25.819  0.00  0.00    +0.025 C 
BRANCH   6   7
ATOM      7  CG  LEU A   1      17.742  29.809  25.283  0.00  0.00    +0.002 C 
ATOM      8  CD2 LEU A   1      18.584  31.030  25.588  0.00  0.00    +0.000 C 
ATOM      9  CD1 LEU A   1      17.758  29.513  23.801  0.00  0.00    +0.000 C 
ENDBRANCH   6   7
ENDBRANCH   1   6
TORSDOF 4
REMARK  Name = ../refined-set-2016/2o4p/2o4p_pocket.pdb
REMARK  219 active torsions:
REMARK  status: ('A' for Active; 'I' for Inactive)
REMARK    1  A    between atoms: _1  and  _3
REMARK    2  A    between atoms: _3  and  _4
REMARK    3  A    between atoms: _3  and  _6
REMARK    4  A    between atoms: _6  and  _7
REMARK    5  A    between atoms: _7  and  _8
REMARK    6  A    between atoms: _8  and  _9
REMARK    7  A    between atoms: _18  and  _20
REMARK    8  A    between atoms: _20  and  _21
REMARK    9  A    between atoms: _20  and  _23
REMARK   10  A    between atoms: _23  and  _24
REMARK   11  A    between atoms: _27  and  _29
REMARK   12  A    between atoms: _29  and  _30
REMARK   13  A    between atoms: _29  and  _32
REMARK   14  A    between atoms: _32  and  _33
REMARK   15  A    between atoms: _36  and  _38
REMARK   16  A    between atoms: _38  and  _39
REMARK   17  A    between atoms: _38  and  _41
REMARK   18  A    between atoms: _41  and  _42
REMARK   19  A    between atoms: _45  and  _47
REMARK   20  A    between atoms: _47  and  _48
REMARK   21  A    between atoms: _47  and  _50
REMARK   22  A    between atoms: _50  and  _51
REMARK   23  A    between atoms: _54  and  _56
REMARK   24  A    between atoms: _56  and  _57
REMARK   25  A    between atoms: _56  and  _59
REMARK   26  A    between atoms: _59  and  _60
REMARK   27  A    between atoms: _63  and  _65
REMARK   28  A    between atoms: _65  and  _66
REMARK   29  A    between atoms: _68  and  _70
REMARK   30  A    between atoms: _70  and  _71
REMARK   31  A    between atoms: _74  and  _76
REMARK   32  A    between atoms: _76  and  _77
REMARK   33  A    between atoms: _76  and  _79
REMARK   34  A    between atoms: _79  and  _80
REMARK   35  A    between atoms: _83  and  _85
REMARK   36  A    between atoms: _85  and  _86
REMARK   37  A    between atoms: _85  and  _88
REMARK   38  A    between atoms: _88  and  _89
REMARK   39  A    between atoms: _92  and  _94
REMARK   40  A    between atoms: _94  and  _95
REMARK   41  A    between atoms: _94  and  _97
REMARK   42  A    between atoms: _97  and  _98
REMARK   43  A    between atoms: _101  and  _103
REMARK   44  A    between atoms: _103  and  _104
REMARK   45  A    between atoms: _103  and  _106
REMARK   46  A    between atoms: _109  and  _111
REMARK   47  A    between atoms: _111  and  _112
REMARK   48  A    between atoms: _111  and  _114
REMARK   49  A    between atoms: _114  and  _115
REMARK   50  A    between atoms: _115  and  _116
REMARK   51  A    between atoms: _116  and  _117
REMARK   52  A    between atoms: _117  and  _118
REMARK   53  A    between atoms: _122  and  _124
REMARK   54  A    between atoms: _124  and  _125
REMARK   55  A    between atoms: _124  and  _127
REMARK   56  A    between atoms: _127  and  _128
REMARK   57  A    between atoms: _128  and  _129
REMARK   58  A    between atoms: _131  and  _133
REMARK   59  A    between atoms: _133  and  _134
REMARK   60  A    between atoms: _133  and  _136
REMARK   61  A    between atoms: _136  and  _137
REMARK   62  A    between atoms: _140  and  _142
REMARK   63  A    between atoms: _142  and  _143
REMARK   64  A    between atoms: _145  and  _147
REMARK   65  A    between atoms: _147  and  _148
REMARK   66  A    between atoms: _150  and  _152
REMARK   67  A    between atoms: _152  and  _153
REMARK   68  A    between atoms: _152  and  _155
REMARK   69  A    between atoms: _155  and  _156
REMARK   70  A    between atoms: _159  and  _161
REMARK   71  A    between atoms: _161  and  _162
REMARK   72  A    between atoms: _164  and  _166
REMARK   73  A    between atoms: _166  and  _167
REMARK   74  A    between atoms: _169  and  _171
REMARK   75  A    between atoms: _171  and  _172
REMARK   76  A    between atoms: _171  and  _174
REMARK   77  A    between atoms: _174  and  _175
REMARK   78  A    between atoms: _181  and  _183
REMARK   79  A    between atoms: _183  and  _184
REMARK   80  A    between atoms: _183  and  _186
REMARK   81  A    between atoms: _186  and  _187
REMARK   82  A    between atoms: _190  and  _192
REMARK   83  A    between atoms: _192  and  _193
REMARK   84  A    between atoms: _192  and  _195
REMARK   85  A    between atoms: _195  and  _196
REMARK   86  A    between atoms: _199  and  _201
REMARK   87  A    between atoms: _201  and  _202
REMARK   88  A    between atoms: _201  and  _204
REMARK   89  A    between atoms: _204  and  _205
REMARK   90  A    between atoms: _209  and  _210
REMARK   91  A    between atoms: _215  and  _217
REMARK   92  A    between atoms: _217  and  _218
REMARK   93  A    between atoms: _217  and  _220
REMARK   94  A    between atoms: _223  and  _225
REMARK   95  A    between atoms: _225  and  _226
REMARK   96  A    between atoms: _225  and  _228
REMARK   97  A    between atoms: _228  and  _229
REMARK   98  A    between atoms: _234  and  _236
REMARK   99  A    between atoms: _236  and  _237
REMARK  100  A    between atoms: _236  and  _239
REMARK  101  A    between atoms: _239  and  _240
REMARK  102  A    between atoms: _243  and  _245
REMARK  103  A    between atoms: _245  and  _246
REMARK  104  A    between atoms: _245  and  _248
REMARK  105  A    between atoms: _248  and  _249
REMARK  106  A    between atoms: _252  and  _254
REMARK  107  A    between atoms: _254  and  _255
REMARK  108  A    between atoms: _257  and  _259
REMARK  109  A    between atoms: _259  and  _260
REMARK  110  A    between atoms: _259  and  _262
REMARK  111  A    between atoms: _262  and  _263
REMARK  112  A    between atoms: _263  and  _264
REMARK  113  A    between atoms: _264  and  _265
REMARK  114  A    between atoms: _274  and  _276
REMARK  115  A    between atoms: _276  and  _277
REMARK  116  A    between atoms: _276  and  _279
REMARK  117  A    between atoms: _279  and  _280
REMARK  118  A    between atoms: _285  and  _287
REMARK  119  A    between atoms: _287  and  _288
REMARK  120  A    between atoms: _287  and  _290
REMARK  121  A    between atoms: _290  and  _291
REMARK  122  A    between atoms: _291  and  _292
REMARK  123  A    between atoms: _292  and  _293
REMARK  124  A    between atoms: _303  and  _304
REMARK  125  A    between atoms: _309  and  _311
REMARK  126  A    between atoms: _311  and  _312
REMARK  127  A    between atoms: _311  and  _314
REMARK  128  A    between atoms: _314  and  _315
REMARK  129  A    between atoms: _318  and  _320
REMARK  130  A    between atoms: _320  and  _321
REMARK  131  A    between atoms: _320  and  _323
REMARK  132  A    between atoms: _323  and  _324
REMARK  133  A    between atoms: _327  and  _329
REMARK  134  A    between atoms: _329  and  _330
REMARK  135  A    between atoms: _329  and  _332
REMARK  136  A    between atoms: _332  and  _333
REMARK  137  A    between atoms: _336  and  _338
REMARK  138  A    between atoms: _338  and  _339
REMARK  139  A    between atoms: _338  and  _341
REMARK  140  A    between atoms: _341  and  _342
REMARK  141  A    between atoms: _345  and  _347
REMARK  142  A    between atoms: _347  and  _348
REMARK  143  A    between atoms: _347  and  _350
REMARK  144  A    between atoms: _350  and  _351
REMARK  145  A    between atoms: _354  and  _356
REMARK  146  A    between atoms: _356  and  _357
REMARK  147  A    between atoms: _359  and  _361
REMARK  148  A    between atoms: _361  and  _362
REMARK  149  A    between atoms: _365  and  _367
REMARK  150  A    between atoms: _367  and  _368
REMARK  151  A    between atoms: _367  and  _370
REMARK  152  A    between atoms: _370  and  _371
REMARK  153  A    between atoms: _374  and  _376
REMARK  154  A    between atoms: _376  and  _377
REMARK  155  A    between atoms: _376  and  _379
REMARK  156  A    between atoms: _379  and  _380
REMARK  157  A    between atoms: _383  and  _385
REMARK  158  A    between atoms: _385  and  _386
REMARK  159  A    between atoms: _385  and  _388
REMARK  160  A    between atoms: _388  and  _389
REMARK  161  A    between atoms: _392  and  _394
REMARK  162  A    between atoms: _394  and  _395
REMARK  163  A    between atoms: _394  and  _397
REMARK  164  A    between atoms: _400  and  _402
REMARK  165  A    between atoms: _402  and  _403
REMARK  166  A    between atoms: _402  and  _405
REMARK  167  A    between atoms: _405  and  _406
REMARK  168  A    between atoms: _409  and  _411
REMARK  169  A    between atoms: _411  and  _412
REMARK  170  A    between atoms: _414  and  _416
REMARK  171  A    between atoms: _416  and  _417
REMARK  172  A    between atoms: _419  and  _421
REMARK  173  A    between atoms: _421  and  _422
REMARK  174  A    between atoms: _421  and  _424
REMARK  175  A    between atoms: _424  and  _425
REMARK  176  A    between atoms: _428  and  _430
REMARK  177  A    between atoms: _430  and  _431
REMARK  178  A    between atoms: _433  and  _435
REMARK  179  A    between atoms: _435  and  _436
REMARK  180  A    between atoms: _438  and  _440
REMARK  181  A    between atoms: _440  and  _441
REMARK  182  A    between atoms: _440  and  _443
REMARK  183  A    between atoms: _443  and  _444
REMARK  184  A    between atoms: _450  and  _452
REMARK  185  A    between atoms: _452  and  _453
REMARK  186  A    between atoms: _452  and  _455
REMARK  187  A    between atoms: _455  and  _456
REMARK  188  A    between atoms: _459  and  _461
REMARK  189  A    between atoms: _461  and  _462
REMARK  190  A    between atoms: _461  and  _464
REMARK  191  A    between atoms: _464  and  _465
REMARK  192  A    between atoms: _468  and  _470
REMARK  193  A    between atoms: _470  and  _471
REMARK  194  A    between atoms: _470  and  _473
REMARK  195  A    between atoms: _473  and  _474
REMARK  196  A    between atoms: _478  and  _479
REMARK  197  A    between atoms: _484  and  _486
REMARK  198  A    between atoms: _486  and  _487
REMARK  199  A    between atoms: _486  and  _489
REMARK  200  A    between atoms: _492  and  _494
REMARK  201  A    between atoms: _494  and  _495
REMARK  202  A    between atoms: _494  and  _497
REMARK  203  A    between atoms: _497  and  _498
REMARK  204  A    between atoms: _503  and  _505
REMARK  205  A    between atoms: _505  and  _506
REMARK  206  A    between atoms: _505  and  _508
REMARK  207  A    between atoms: _508  and  _509
REMARK  208  A    between atoms: _512  and  _514
REMARK  209  A    between atoms: _514  and  _515
REMARK  210  A    between atoms: _514  and  _517
REMARK  211  A    between atoms: _517  and  _518
REMARK  212  A    between atoms: _521  and  _523
REMARK  213  A    between atoms: _523  and  _524
REMARK  214  A    between atoms: _526  and  _528
REMARK  215  A    between atoms: _528  and  _529
REMARK  216  A    between atoms: _528  and  _531
REMARK  217  A    between atoms: _531  and  _532
REMARK  218  A    between atoms: _532  and  _533
REMARK  219  A    between atoms: _533  and  _534
REMARK                            x       y       z     vdW  Elec       q    Type
REMARK                         _______ _______ _______ _____ _____    ______ ____
ROOT
ATOM      1  CA  ILE A   5      13.700  20.948  26.209  0.00  0.00    +0.149 C 
ENDROOT
BRANCH   1   2
ATOM      2  C   ILE A   5      15.086  21.145  26.843  0.00  0.00    +0.241 C 
ATOM      3  O   ILE A   5      15.497  22.283  27.116  0.00  0.00    -0.273 OA
ATOM      4  N   ILE A   6      15.795  20.036  27.048  0.00  0.00    -0.297 N 
ATOM      5  H   ILE A   6      15.353  19.115  26.851  0.00  0.00    +0.150 HD
BRANCH   4   6
ATOM      6  CA  ILE A   6      17.165  20.065  27.537  0.00  0.00    +0.149 C 
BRANCH   6   7
ATOM      7  C   ILE A   6      18.009  19.792  26.319  0.00  0.00    +0.241 C 
ATOM      8  N   GLY A   7      18.807  20.786  25.945  0.00  0.00    -0.295 N 
ATOM      9  H   GLY A   7      18.866  21.635  26.542  0.00  0.00    +0.150 HD
ATOM     10  O   ILE A   6      17.936  18.692  25.728  0.00  0.00    -0.273 OA
BRANCH   8  11
ATOM     11  CA  GLY A   7      19.607  20.726  24.720  0.00  0.00    +0.176 C 
BRANCH  11  12
ATOM     12  C   GLY A   7      21.043  20.470  25.077  0.00  0.00    +0.243 C 
ATOM     13  O   GLY A   7      21.382  20.288  26.234  0.00  0.00    -0.273 OA
ATOM     14  N   ARG A   8      21.883  20.471  24.067  0.00  0.00    -0.298 N 
ATOM     15  H   ARG A   8      21.551  20.776  23.130  0.00  0.00    +0.150 HD
BRANCH  14  16
ATOM     16  CA  ARG A   8      23.273  20.053  24.232  0.00  0.00    +0.137 C 
BRANCH  16  17
ATOM     17  C   ARG A   8      24.082  20.891  25.238  0.00  0.00    +0.227 C 
ATOM     18  O   ARG A   8      25.029  20.374  25.865  0.00  0.00    -0.286 OA
ENDBRANCH  16  17
BRANCH  16  19
ATOM     19  CB  ARG A   8      23.955  20.068  22.865  0.00  0.00    +0.031 C 
BRANCH  19  20
ATOM     20  CG  ARG A   8      23.390  19.013  21.884  0.00  0.00    +0.045 C 
BRANCH  20  21
ATOM     21  CD  ARG A   8      24.150  18.948  20.595  0.00  0.00    +0.174 C 
BRANCH  21  22
ATOM     22  NE  ARG A   8      24.222  20.249  19.926  0.00  0.00    -0.265 N 
ATOM     23  CZ  ARG A   8      25.253  21.092  19.962  0.00  0.00    +0.342 C 
ATOM     24  NH2 ARG A   8      26.373  20.806  20.616  0.00  0.00    -0.292 N 
ATOM     25 HH21 ARG A   8      26.464  19.901  21.120  0.00  0.00    +0.255 HD
ATOM     26 HH22 ARG A   8      27.159  21.487  20.624  0.00  0.00    +0.255 HD
ATOM     27  NH1 ARG A   8      25.170  22.242  19.321  0.00  0.00    -0.292 N 
ATOM     28 HH11 ARG A   8      25.969  22.908  19.342  0.00  0.00    +0.255 HD
ATOM     29 HH12 ARG A   8      24.306  22.483  18.795  0.00  0.00    +0.255 HD
ATOM     30  HE  ARG A   8      23.392  20.542  19.372  0.00  0.00    +0.259 HD
ENDBRANCH  21  22
ENDBRANCH  20  21
ENDBRANCH  19  20
ENDBRANCH  16  19
ENDBRANCH  14  16
ENDBRANCH  11  12
ENDBRANCH   8  11
ENDBRANCH   6   7
BRANCH   6  31
ATOM     31  CB  ILE A   6      17.407  18.981  28.679  0.00  0.00    +0.027 C 
ATOM     32  CG2 ILE A   6      18.871  18.952  29.115  0.00  0.00    +0.002 C 
BRANCH  31  33
ATOM     33  CG1 ILE A   6      16.381  19.085  29.829  0.00  0.00    +0.002 C 
ATOM     34  CD1 ILE A   6      16.224  20.450  30.531  0.00  0.00    +0.000 C 
ENDBRANCH  31  33
ENDBRANCH   6  31
ENDBRANCH   4   6
ENDBRANCH   1   2
BRANCH   1  37
ATOM     35  C   ASN A   4      11.635  21.039  27.526  0.00  0.00    +0.241 C 
ATOM     36  O   ASN A   4      11.441  19.822  27.448  0.00  0.00    -0.273 OA
ATOM     37  N   ILE A   5      12.689  21.649  26.986  0.00  0.00    -0.297 N 
ATOM     38  H   ILE A   5      12.794  22.674  27.126  0.00  0.00    +0.150 HD
BRANCH  35  39
ATOM     39  CA  ASN A   4      10.616  21.923  28.244  0.00  0.00    +0.158 C 
BRANCH  39  41
ATOM     40  C   VAL A   3       8.972  21.721  26.436  0.00  0.00    +0.241 C 
ATOM     41  N   ASN A   4       9.283  21.581  27.723  0.00  0.00    -0.297 N 
ATOM     42  H   ASN A   4       8.562  21.219  28.380  0.00  0.00    +0.150 HD
ATOM     43  O   VAL A   3       9.682  22.328  25.643  0.00  0.00    -0.273 OA
BRANCH  40  44
ATOM     44  CA  VAL A   3       7.645  21.096  25.970  0.00  0.00    +0.149 C 
BRANCH  44  47
ATOM     45  C   PRO A   2       5.919  21.930  24.372  0.00  0.00    +0.241 C 
ATOM     46  O   PRO A   2       4.945  21.470  24.975  0.00  0.00    -0.273 OA
ATOM     47  N   VAL A   3       7.190  21.831  24.800  0.00  0.00    -0.297 N 
ATOM     48  H   VAL A   3       7.915  22.326  24.243  0.00  0.00    +0.150 HD
BRANCH  45  52
ATOM     49  C   THR A   1       6.805  24.778  23.657  0.00  0.00    +0.244 C 
ATOM     50  O   THR A   1       6.105  24.891  24.662  0.00  0.00    -0.273 OA
ATOM     51  N   PRO A   2       6.678  23.758  22.802  0.00  0.00    -0.272 N 
ATOM     52  CA  PRO A   2       5.697  22.699  23.048  0.00  0.00    +0.152 C 
ATOM     53  CB  PRO A   2       5.859  21.788  21.819  0.00  0.00    +0.031 C 
ATOM     54  CG  PRO A   2       7.235  22.062  21.358  0.00  0.00    +0.024 C 
ATOM     55  CD  PRO A   2       7.394  23.533  21.525  0.00  0.00    +0.094 C 
BRANCH  49  56
ATOM     56  CA  THR A   1       7.837  25.843  23.358  0.00  0.00    +0.172 C 
BRANCH  56  57
ATOM     57  N   THR A   1       7.297  27.109  23.800  0.00  0.00    -0.236 NA
ATOM     58  H   THR A   1       6.791  27.164  24.707  0.00  0.00    +0.142 HD
ENDBRANCH  56  57
BRANCH  56  59
ATOM     59  CB  THR A   1       9.210  25.540  24.036  0.00  0.00    +0.135 C 
ATOM     60  CG2 THR A   1       9.120  25.517  25.600  0.00  0.00    +0.034 C 
BRANCH  59  61
ATOM     61  OG1 THR A   1       9.602  24.202  23.702  0.00  0.00    -0.383 OA
ATOM     62  HG1 THR A   1       8.917  23.567  24.030  0.00  0.00    +0.210 HD
ENDBRANCH  59  61
ENDBRANCH  56  59
ENDBRANCH  49  56
ENDBRANCH  45  52
ENDBRANCH  44  47
BRANCH  44  63
ATOM     63  CB  VAL A   3       7.901  19.563  25.687  0.00  0.00    +0.027 C 
ATOM     64  CG2 VAL A   3       6.600  18.836  25.335  0.00  0.00    +0.002 C 
ATOM     65  CG1 VAL A   3       8.917  19.352  24.583  0.00  0.00    +0.002 C 
ENDBRANCH  44  63
ENDBRANCH  40  44
ENDBRANCH  39  41
BRANCH  39  66
ATOM     66  CB  ASN A   4      10.681  21.654  29.773  0.00  0.00    +0.114 C 
BRANCH  66  67
ATOM     67  CG  ASN A   4       9.750  22.524  30.560  0.00  0.00    +0.222 C 
ATOM     68  ND2 ASN A   4       9.078  21.928  31.555  0.00  0.00    -0.329 N 
ATOM     69 HD21 ASN A   4       8.424  22.481  32.145  0.00  0.00    +0.145 HD
ATOM     70 HD22 ASN A   4       9.211  20.913  31.737  0.00  0.00    +0.145 HD
ATOM     71  OD1 ASN A   4       9.628  23.722  30.304  0.00  0.00    -0.275 OA
ENDBRANCH  66  67
ENDBRANCH  39  66
ENDBRANCH  35  39
ENDBRANCH   1  37
BRANCH   1  72
ATOM     72  CB  ILE A   5      13.717  21.476  24.722  0.00  0.00    +0.027 C 
ATOM     73  CG2 ILE A   5      14.874  20.850  23.900  0.00  0.00    +0.002 C 
BRANCH  72  74
ATOM     74  CG1 ILE A   5      12.376  21.238  24.020  0.00  0.00    +0.002 C 
ATOM     75  CD1 ILE A   5      12.160  22.252  22.803  0.00  0.00    +0.000 C 
ENDBRANCH  72  74
ENDBRANCH   1  72
TORSDOF 28
REMARK  Name = ../refined-set-2016/2o4p/2o4p_pocket.pdb
REMARK  219 active torsions:
REMARK  status: ('A' for Active; 'I' for Inactive)
REMARK    1  A    between atoms: _1  and  _3
REMARK    2  A    between atoms: _3  and  _4
REMARK    3  A    between atoms: _3  and  _6
REMARK    4  A    between atoms: _6  and  _7
REMARK    5  A    between atoms: _7  and  _8
REMARK    6  A    between atoms: _8  and  _9
REMARK    7  A    between atoms: _18  and  _20
REMARK    8  A    between atoms: _20  and  _21
REMARK    9  A    between atoms: _20  and  _23
REMARK   10  A    between atoms: _23  and  _24
REMARK   11  A    between atoms: _27  and  _29
REMARK   12  A    between atoms: _29  and  _30
REMARK   13  A    between atoms: _29  and  _32
REMARK   14  A    between atoms: _32  and  _33
REMARK   15  A    between atoms: _36  and  _38
REMARK   16  A    between atoms: _38  and  _39
REMARK   17  A    between atoms: _38  and  _41
REMARK   18  A    between atoms: _41  and  _42
REMARK   19  A    between atoms: _45  and  _47
REMARK   20  A    between atoms: _47  and  _48
REMARK   21  A    between atoms: _47  and  _50
REMARK   22  A    between atoms: _50  and  _51
REMARK   23  A    between atoms: _54  and  _56
REMARK   24  A    between atoms: _56  and  _57
REMARK   25  A    between atoms: _56  and  _59
REMARK   26  A    between atoms: _59  and  _60
REMARK   27  A    between atoms: _63  and  _65
REMARK   28  A    between atoms: _65  and  _66
REMARK   29  A    between atoms: _68  and  _70
REMARK   30  A    between atoms: _70  and  _71
REMARK   31  A    between atoms: _74  and  _76
REMARK   32  A    between atoms: _76  and  _77
REMARK   33  A    between atoms: _76  and  _79
REMARK   34  A    between atoms: _79  and  _80
REMARK   35  A    between atoms: _83  and  _85
REMARK   36  A    between atoms: _85  and  _86
REMARK   37  A    between atoms: _85  and  _88
REMARK   38  A    between atoms: _88  and  _89
REMARK   39  A    between atoms: _92  and  _94
REMARK   40  A    between atoms: _94  and  _95
REMARK   41  A    between atoms: _94  and  _97
REMARK   42  A    between atoms: _97  and  _98
REMARK   43  A    between atoms: _101  and  _103
REMARK   44  A    between atoms: _103  and  _104
REMARK   45  A    between atoms: _103  and  _106
REMARK   46  A    between atoms: _109  and  _111
REMARK   47  A    between atoms: _111  and  _112
REMARK   48  A    between atoms: _111  and  _114
REMARK   49  A    between atoms: _114  and  _115
REMARK   50  A    between atoms: _115  and  _116
REMARK   51  A    between atoms: _116  and  _117
REMARK   52  A    between atoms: _117  and  _118
REMARK   53  A    between atoms: _122  and  _124
REMARK   54  A    between atoms: _124  and  _125
REMARK   55  A    between atoms: _124  and  _127
REMARK   56  A    between atoms: _127  and  _128
REMARK   57  A    between atoms: _128  and  _129
REMARK   58  A    between atoms: _131  and  _133
REMARK   59  A    between atoms: _133  and  _134
REMARK   60  A    between atoms: _133  and  _136
REMARK   61  A    between atoms: _136  and  _137
REMARK   62  A    between atoms: _140  and  _142
REMARK   63  A    between atoms: _142  and  _143
REMARK   64  A    between atoms: _145  and  _147
REMARK   65  A    between atoms: _147  and  _148
REMARK   66  A    between atoms: _150  and  _152
REMARK   67  A    between atoms: _152  and  _153
REMARK   68  A    between atoms: _152  and  _155
REMARK   69  A    between atoms: _155  and  _156
REMARK   70  A    between atoms: _159  and  _161
REMARK   71  A    between atoms: _161  and  _162
REMARK   72  A    between atoms: _164  and  _166
REMARK   73  A    between atoms: _166  and  _167
REMARK   74  A    between atoms: _169  and  _171
REMARK   75  A    between atoms: _171  and  _172
REMARK   76  A    between atoms: _171  and  _174
REMARK   77  A    between atoms: _174  and  _175
REMARK   78  A    between atoms: _181  and  _183
REMARK   79  A    between atoms: _183  and  _184
REMARK   80  A    between atoms: _183  and  _186
REMARK   81  A    between atoms: _186  and  _187
REMARK   82  A    between atoms: _190  and  _192
REMARK   83  A    between atoms: _192  and  _193
REMARK   84  A    between atoms: _192  and  _195
REMARK   85  A    between atoms: _195  and  _196
REMARK   86  A    between atoms: _199  and  _201
REMARK   87  A    between atoms: _201  and  _202
REMARK   88  A    between atoms: _201  and  _204
REMARK   89  A    between atoms: _204  and  _205
REMARK   90  A    between atoms: _209  and  _210
REMARK   91  A    between atoms: _215  and  _217
REMARK   92  A    between atoms: _217  and  _218
REMARK   93  A    between atoms: _217  and  _220
REMARK   94  A    between atoms: _223  and  _225
REMARK   95  A    between atoms: _225  and  _226
REMARK   96  A    between atoms: _225  and  _228
REMARK   97  A    between atoms: _228  and  _229
REMARK   98  A    between atoms: _234  and  _236
REMARK   99  A    between atoms: _236  and  _237
REMARK  100  A    between atoms: _236  and  _239
REMARK  101  A    between atoms: _239  and  _240
REMARK  102  A    between atoms: _243  and  _245
REMARK  103  A    between atoms: _245  and  _246
REMARK  104  A    between atoms: _245  and  _248
REMARK  105  A    between atoms: _248  and  _249
REMARK  106  A    between atoms: _252  and  _254
REMARK  107  A    between atoms: _254  and  _255
REMARK  108  A    between atoms: _257  and  _259
REMARK  109  A    between atoms: _259  and  _260
REMARK  110  A    between atoms: _259  and  _262
REMARK  111  A    between atoms: _262  and  _263
REMARK  112  A    between atoms: _263  and  _264
REMARK  113  A    between atoms: _264  and  _265
REMARK  114  A    between atoms: _274  and  _276
REMARK  115  A    between atoms: _276  and  _277
REMARK  116  A    between atoms: _276  and  _279
REMARK  117  A    between atoms: _279  and  _280
REMARK  118  A    between atoms: _285  and  _287
REMARK  119  A    between atoms: _287  and  _288
REMARK  120  A    between atoms: _287  and  _290
REMARK  121  A    between atoms: _290  and  _291
REMARK  122  A    between atoms: _291  and  _292
REMARK  123  A    between atoms: _292  and  _293
REMARK  124  A    between atoms: _303  and  _304
REMARK  125  A    between atoms: _309  and  _311
REMARK  126  A    between atoms: _311  and  _312
REMARK  127  A    between atoms: _311  and  _314
REMARK  128  A    between atoms: _314  and  _315
REMARK  129  A    between atoms: _318  and  _320
REMARK  130  A    between atoms: _320  and  _321
REMARK  131  A    between atoms: _320  and  _323
REMARK  132  A    between atoms: _323  and  _324
REMARK  133  A    between atoms: _327  and  _329
REMARK  134  A    between atoms: _329  and  _330
REMARK  135  A    between atoms: _329  and  _332
REMARK  136  A    between atoms: _332  and  _333
REMARK  137  A    between atoms: _336  and  _338
REMARK  138  A    between atoms: _338  and  _339
REMARK  139  A    between atoms: _338  and  _341
REMARK  140  A    between atoms: _341  and  _342
REMARK  141  A    between atoms: _345  and  _347
REMARK  142  A    between atoms: _347  and  _348
REMARK  143  A    between atoms: _347  and  _350
REMARK  144  A    between atoms: _350  and  _351
REMARK  145  A    between atoms: _354  and  _356
REMARK  146  A    between atoms: _356  and  _357
REMARK  147  A    between atoms: _359  and  _361
REMARK  148  A    between atoms: _361  and  _362
REMARK  149  A    between atoms: _365  and  _367
REMARK  150  A    between atoms: _367  and  _368
REMARK  151  A    between atoms: _367  and  _370
REMARK  152  A    between atoms: _370  and  _371
REMARK  153  A    between atoms: _374  and  _376
REMARK  154  A    between atoms: _376  and  _377
REMARK  155  A    between atoms: _376  and  _379
REMARK  156  A    between atoms: _379  and  _380
REMARK  157  A    between atoms: _383  and  _385
REMARK  158  A    between atoms: _385  and  _386
REMARK  159  A    between atoms: _385  and  _388
REMARK  160  A    between atoms: _388  and  _389
REMARK  161  A    between atoms: _392  and  _394
REMARK  162  A    between atoms: _394  and  _395
REMARK  163  A    between atoms: _394  and  _397
REMARK  164  A    between atoms: _400  and  _402
REMARK  165  A    between atoms: _402  and  _403
REMARK  166  A    between atoms: _402  and  _405
REMARK  167  A    between atoms: _405  and  _406
REMARK  168  A    between atoms: _409  and  _411
REMARK  169  A    between atoms: _411  and  _412
REMARK  170  A    between atoms: _414  and  _416
REMARK  171  A    between atoms: _416  and  _417
REMARK  172  A    between atoms: _419  and  _421
REMARK  173  A    between atoms: _421  and  _422
REMARK  174  A    between atoms: _421  and  _424
REMARK  175  A    between atoms: _424  and  _425
REMARK  176  A    between atoms: _428  and  _430
REMARK  177  A    between atoms: _430  and  _431
REMARK  178  A    between atoms: _433  and  _435
REMARK  179  A    between atoms: _435  and  _436
REMARK  180  A    between atoms: _438  and  _440
REMARK  181  A    between atoms: _440  and  _441
REMARK  182  A    between atoms: _440  and  _443
REMARK  183  A    between atoms: _443  and  _444
REMARK  184  A    between atoms: _450  and  _452
REMARK  185  A    between atoms: _452  and  _453
REMARK  186  A    between atoms: _452  and  _455
REMARK  187  A    between atoms: _455  and  _456
REMARK  188  A    between atoms: _459  and  _461
REMARK  189  A    between atoms: _461  and  _462
REMARK  190  A    between atoms: _461  and  _464
REMARK  191  A    between atoms: _464  and  _465
REMARK  192  A    between atoms: _468  and  _470
REMARK  193  A    between atoms: _470  and  _471
REMARK  194  A    between atoms: _470  and  _473
REMARK  195  A    between atoms: _473  and  _474
REMARK  196  A    between atoms: _478  and  _479
REMARK  197  A    between atoms: _484  and  _486
REMARK  198  A    between atoms: _486  and  _487
REMARK  199  A    between atoms: _486  and  _489
REMARK  200  A    between atoms: _492  and  _494
REMARK  201  A    between atoms: _494  and  _495
REMARK  202  A    between atoms: _494  and  _497
REMARK  203  A    between atoms: _497  and  _498
REMARK  204  A    between atoms: _503  and  _505
REMARK  205  A    between atoms: _505  and  _506
REMARK  206  A    between atoms: _505  and  _508
REMARK  207  A    between atoms: _508  and  _509
REMARK  208  A    between atoms: _512  and  _514
REMARK  209  A    between atoms: _514  and  _515
REMARK  210  A    between atoms: _514  and  _517
REMARK  211  A    between atoms: _517  and  _518
REMARK  212  A    between atoms: _521  and  _523
REMARK  213  A    between atoms: _523  and  _524
REMARK  214  A    between atoms: _526  and  _528
REMARK  215  A    between atoms: _528  and  _529
REMARK  216  A    between atoms: _528  and  _531
REMARK  217  A    between atoms: _531  and  _532
REMARK  218  A    between atoms: _532  and  _533
REMARK  219  A    between atoms: _533  and  _534
REMARK                            x       y       z     vdW  Elec       q    Type
REMARK                         _______ _______ _______ _____ _____    ______ ____
ROOT
ATOM      1  O   HOH     1       8.752   9.405  10.736  0.00  0.00    +0.000 OA
ENDROOT
TORSDOF 0
REMARK  Name = ../refined-set-2016/2o4p/2o4p_pocket.pdb
REMARK  219 active torsions:
REMARK  status: ('A' for Active; 'I' for Inactive)
REMARK    1  A    between atoms: _1  and  _3
REMARK    2  A    between atoms: _3  and  _4
REMARK    3  A    between atoms: _3  and  _6
REMARK    4  A    between atoms: _6  and  _7
REMARK    5  A    between atoms: _7  and  _8
REMARK    6  A    between atoms: _8  and  _9
REMARK    7  A    between atoms: _18  and  _20
REMARK    8  A    between atoms: _20  and  _21
REMARK    9  A    between atoms: _20  and  _23
REMARK   10  A    between atoms: _23  and  _24
REMARK   11  A    between atoms: _27  and  _29
REMARK   12  A    between atoms: _29  and  _30
REMARK   13  A    between atoms: _29  and  _32
REMARK   14  A    between atoms: _32  and  _33
REMARK   15  A    between atoms: _36  and  _38
REMARK   16  A    between atoms: _38  and  _39
REMARK   17  A    between atoms: _38  and  _41
REMARK   18  A    between atoms: _41  and  _42
REMARK   19  A    between atoms: _45  and  _47
REMARK   20  A    between atoms: _47  and  _48
REMARK   21  A    between atoms: _47  and  _50
REMARK   22  A    between atoms: _50  and  _51
REMARK   23  A    between atoms: _54  and  _56
REMARK   24  A    between atoms: _56  and  _57
REMARK   25  A    between atoms: _56  and  _59
REMARK   26  A    between atoms: _59  and  _60
REMARK   27  A    between atoms: _63  and  _65
REMARK   28  A    between atoms: _65  and  _66
REMARK   29  A    between atoms: _68  and  _70
REMARK   30  A    between atoms: _70  and  _71
REMARK   31  A    between atoms: _74  and  _76
REMARK   32  A    between atoms: _76  and  _77
REMARK   33  A    between atoms: _76  and  _79
REMARK   34  A    between atoms: _79  and  _80
REMARK   35  A    between atoms: _83  and  _85
REMARK   36  A    between atoms: _85  and  _86
REMARK   37  A    between atoms: _85  and  _88
REMARK   38  A    between atoms: _88  and  _89
REMARK   39  A    between atoms: _92  and  _94
REMARK   40  A    between atoms: _94  and  _95
REMARK   41  A    between atoms: _94  and  _97
REMARK   42  A    between atoms: _97  and  _98
REMARK   43  A    between atoms: _101  and  _103
REMARK   44  A    between atoms: _103  and  _104
REMARK   45  A    between atoms: _103  and  _106
REMARK   46  A    between atoms: _109  and  _111
REMARK   47  A    between atoms: _111  and  _112
REMARK   48  A    between atoms: _111  and  _114
REMARK   49  A    between atoms: _114  and  _115
REMARK   50  A    between atoms: _115  and  _116
REMARK   51  A    between atoms: _116  and  _117
REMARK   52  A    between atoms: _117  and  _118
REMARK   53  A    between atoms: _122  and  _124
REMARK   54  A    between atoms: _124  and  _125
REMARK   55  A    between atoms: _124  and  _127
REMARK   56  A    between atoms: _127  and  _128
REMARK   57  A    between atoms: _128  and  _129
REMARK   58  A    between atoms: _131  and  _133
REMARK   59  A    between atoms: _133  and  _134
REMARK   60  A    between atoms: _133  and  _136
REMARK   61  A    between atoms: _136  and  _137
REMARK   62  A    between atoms: _140  and  _142
REMARK   63  A    between atoms: _142  and  _143
REMARK   64  A    between atoms: _145  and  _147
REMARK   65  A    between atoms: _147  and  _148
REMARK   66  A    between atoms: _150  and  _152
REMARK   67  A    between atoms: _152  and  _153
REMARK   68  A    between atoms: _152  and  _155
REMARK   69  A    between atoms: _155  and  _156
REMARK   70  A    between atoms: _159  and  _161
REMARK   71  A    between atoms: _161  and  _162
REMARK   72  A    between atoms: _164  and  _166
REMARK   73  A    between atoms: _166  and  _167
REMARK   74  A    between atoms: _169  and  _171
REMARK   75  A    between atoms: _171  and  _172
REMARK   76  A    between atoms: _171  and  _174
REMARK   77  A    between atoms: _174  and  _175
REMARK   78  A    between atoms: _181  and  _183
REMARK   79  A    between atoms: _183  and  _184
REMARK   80  A    between atoms: _183  and  _186
REMARK   81  A    between atoms: _186  and  _187
REMARK   82  A    between atoms: _190  and  _192
REMARK   83  A    between atoms: _192  and  _193
REMARK   84  A    between atoms: _192  and  _195
REMARK   85  A    between atoms: _195  and  _196
REMARK   86  A    between atoms: _199  and  _201
REMARK   87  A    between atoms: _201  and  _202
REMARK   88  A    between atoms: _201  and  _204
REMARK   89  A    between atoms: _204  and  _205
REMARK   90  A    between atoms: _209  and  _210
REMARK   91  A    between atoms: _215  and  _217
REMARK   92  A    between atoms: _217  and  _218
REMARK   93  A    between atoms: _217  and  _220
REMARK   94  A    between atoms: _223  and  _225
REMARK   95  A    between atoms: _225  and  _226
REMARK   96  A    between atoms: _225  and  _228
REMARK   97  A    between atoms: _228  and  _229
REMARK   98  A    between atoms: _234  and  _236
REMARK   99  A    between atoms: _236  and  _237
REMARK  100  A    between atoms: _236  and  _239
REMARK  101  A    between atoms: _239  and  _240
REMARK  102  A    between atoms: _243  and  _245
REMARK  103  A    between atoms: _245  and  _246
REMARK  104  A    between atoms: _245  and  _248
REMARK  105  A    between atoms: _248  and  _249
REMARK  106  A    between atoms: _252  and  _254
REMARK  107  A    between atoms: _254  and  _255
REMARK  108  A    between atoms: _257  and  _259
REMARK  109  A    between atoms: _259  and  _260
REMARK  110  A    between atoms: _259  and  _262
REMARK  111  A    between atoms: _262  and  _263
REMARK  112  A    between atoms: _263  and  _264
REMARK  113  A    between atoms: _264  and  _265
REMARK  114  A    between atoms: _274  and  _276
REMARK  115  A    between atoms: _276  and  _277
REMARK  116  A    between atoms: _276  and  _279
REMARK  117  A    between atoms: _279  and  _280
REMARK  118  A    between atoms: _285  and  _287
REMARK  119  A    between atoms: _287  and  _288
REMARK  120  A    between atoms: _287  and  _290
REMARK  121  A    between atoms: _290  and  _291
REMARK  122  A    between atoms: _291  and  _292
REMARK  123  A    between atoms: _292  and  _293
REMARK  124  A    between atoms: _303  and  _304
REMARK  125  A    between atoms: _309  and  _311
REMARK  126  A    between atoms: _311  and  _312
REMARK  127  A    between atoms: _311  and  _314
REMARK  128  A    between atoms: _314  and  _315
REMARK  129  A    between atoms: _318  and  _320
REMARK  130  A    between atoms: _320  and  _321
REMARK  131  A    between atoms: _320  and  _323
REMARK  132  A    between atoms: _323  and  _324
REMARK  133  A    between atoms: _327  and  _329
REMARK  134  A    between atoms: _329  and  _330
REMARK  135  A    between atoms: _329  and  _332
REMARK  136  A    between atoms: _332  and  _333
REMARK  137  A    between atoms: _336  and  _338
REMARK  138  A    between atoms: _338  and  _339
REMARK  139  A    between atoms: _338  and  _341
REMARK  140  A    between atoms: _341  and  _342
REMARK  141  A    between atoms: _345  and  _347
REMARK  142  A    between atoms: _347  and  _348
REMARK  143  A    between atoms: _347  and  _350
REMARK  144  A    between atoms: _350  and  _351
REMARK  145  A    between atoms: _354  and  _356
REMARK  146  A    between atoms: _356  and  _357
REMARK  147  A    between atoms: _359  and  _361
REMARK  148  A    between atoms: _361  and  _362
REMARK  149  A    between atoms: _365  and  _367
REMARK  150  A    between atoms: _367  and  _368
REMARK  151  A    between atoms: _367  and  _370
REMARK  152  A    between atoms: _370  and  _371
REMARK  153  A    between atoms: _374  and  _376
REMARK  154  A    between atoms: _376  and  _377
REMARK  155  A    between atoms: _376  and  _379
REMARK  156  A    between atoms: _379  and  _380
REMARK  157  A    between atoms: _383  and  _385
REMARK  158  A    between atoms: _385  and  _386
REMARK  159  A    between atoms: _385  and  _388
REMARK  160  A    between atoms: _388  and  _389
REMARK  161  A    between atoms: _392  and  _394
REMARK  162  A    between atoms: _394  and  _395
REMARK  163  A    between atoms: _394  and  _397
REMARK  164  A    between atoms: _400  and  _402
REMARK  165  A    between atoms: _402  and  _403
REMARK  166  A    between atoms: _402  and  _405
REMARK  167  A    between atoms: _405  and  _406
REMARK  168  A    between atoms: _409  and  _411
REMARK  169  A    between atoms: _411  and  _412
REMARK  170  A    between atoms: _414  and  _416
REMARK  171  A    between atoms: _416  and  _417
REMARK  172  A    between atoms: _419  and  _421
REMARK  173  A    between atoms: _421  and  _422
REMARK  174  A    between atoms: _421  and  _424
REMARK  175  A    between atoms: _424  and  _425
REMARK  176  A    between atoms: _428  and  _430
REMARK  177  A    between atoms: _430  and  _431
REMARK  178  A    between atoms: _433  and  _435
REMARK  179  A    between atoms: _435  and  _436
REMARK  180  A    between atoms: _438  and  _440
REMARK  181  A    between atoms: _440  and  _441
REMARK  182  A    between atoms: _440  and  _443
REMARK  183  A    between atoms: _443  and  _444
REMARK  184  A    between atoms: _450  and  _452
REMARK  185  A    between atoms: _452  and  _453
REMARK  186  A    between atoms: _452  and  _455
REMARK  187  A    between atoms: _455  and  _456
REMARK  188  A    between atoms: _459  and  _461
REMARK  189  A    between atoms: _461  and  _462
REMARK  190  A    between atoms: _461  and  _464
REMARK  191  A    between atoms: _464  and  _465
REMARK  192  A    between atoms: _468  and  _470
REMARK  193  A    between atoms: _470  and  _471
REMARK  194  A    between atoms: _470  and  _473
REMARK  195  A    between atoms: _473  and  _474
REMARK  196  A    between atoms: _478  and  _479
REMARK  197  A    between atoms: _484  and  _486
REMARK  198  A    between atoms: _486  and  _487
REMARK  199  A    between atoms: _486  and  _489
REMARK  200  A    between atoms: _492  and  _494
REMARK  201  A    between atoms: _494  and  _495
REMARK  202  A    between atoms: _494  and  _497
REMARK  203  A    between atoms: _497  and  _498
REMARK  204  A    between atoms: _503  and  _505
REMARK  205  A    between atoms: _505  and  _506
REMARK  206  A    between atoms: _505  and  _508
REMARK  207  A    between atoms: _508  and  _509
REMARK  208  A    between atoms: _512  and  _514
REMARK  209  A    between atoms: _514  and  _515
REMARK  210  A    between atoms: _514  and  _517
REMARK  211  A    between atoms: _517  and  _518
REMARK  212  A    between atoms: _521  and  _523
REMARK  213  A    between atoms: _523  and  _524
REMARK  214  A    between atoms: _526  and  _528
REMARK  215  A    between atoms: _528  and  _529
REMARK  216  A    between atoms: _528  and  _531
REMARK  217  A    between atoms: _531  and  _532
REMARK  218  A    between atoms: _532  and  _533
REMARK  219  A    between atoms: _533  and  _534
REMARK                            x       y       z     vdW  Elec       q    Type
REMARK                         _______ _______ _______ _____ _____    ______ ____
ROOT
ATOM      1  O   HOH     1       7.942   7.702  17.368  0.00  0.00    +0.000 OA
ENDROOT
TORSDOF 0
REMARK  Name = ../refined-set-2016/2o4p/2o4p_pocket.pdb
REMARK  219 active torsions:
REMARK  status: ('A' for Active; 'I' for Inactive)
REMARK    1  A    between atoms: _1  and  _3
REMARK    2  A    between atoms: _3  and  _4
REMARK    3  A    between atoms: _3  and  _6
REMARK    4  A    between atoms: _6  and  _7
REMARK    5  A    between atoms: _7  and  _8
REMARK    6  A    between atoms: _8  and  _9
REMARK    7  A    between atoms: _18  and  _20
REMARK    8  A    between atoms: _20  and  _21
REMARK    9  A    between atoms: _20  and  _23
REMARK   10  A    between atoms: _23  and  _24
REMARK   11  A    between atoms: _27  and  _29
REMARK   12  A    between atoms: _29  and  _30
REMARK   13  A    between atoms: _29  and  _32
REMARK   14  A    between atoms: _32  and  _33
REMARK   15  A    between atoms: _36  and  _38
REMARK   16  A    between atoms: _38  and  _39
REMARK   17  A    between atoms: _38  and  _41
REMARK   18  A    between atoms: _41  and  _42
REMARK   19  A    between atoms: _45  and  _47
REMARK   20  A    between atoms: _47  and  _48
REMARK   21  A    between atoms: _47  and  _50
REMARK   22  A    between atoms: _50  and  _51
REMARK   23  A    between atoms: _54  and  _56
REMARK   24  A    between atoms: _56  and  _57
REMARK   25  A    between atoms: _56  and  _59
REMARK   26  A    between atoms: _59  and  _60
REMARK   27  A    between atoms: _63  and  _65
REMARK   28  A    between atoms: _65  and  _66
REMARK   29  A    between atoms: _68  and  _70
REMARK   30  A    between atoms: _70  and  _71
REMARK   31  A    between atoms: _74  and  _76
REMARK   32  A    between atoms: _76  and  _77
REMARK   33  A    between atoms: _76  and  _79
REMARK   34  A    between atoms: _79  and  _80
REMARK   35  A    between atoms: _83  and  _85
REMARK   36  A    between atoms: _85  and  _86
REMARK   37  A    between atoms: _85  and  _88
REMARK   38  A    between atoms: _88  and  _89
REMARK   39  A    between atoms: _92  and  _94
REMARK   40  A    between atoms: _94  and  _95
REMARK   41  A    between atoms: _94  and  _97
REMARK   42  A    between atoms: _97  and  _98
REMARK   43  A    between atoms: _101  and  _103
REMARK   44  A    between atoms: _103  and  _104
REMARK   45  A    between atoms: _103  and  _106
REMARK   46  A    between atoms: _109  and  _111
REMARK   47  A    between atoms: _111  and  _112
REMARK   48  A    between atoms: _111  and  _114
REMARK   49  A    between atoms: _114  and  _115
REMARK   50  A    between atoms: _115  and  _116
REMARK   51  A    between atoms: _116  and  _117
REMARK   52  A    between atoms: _117  and  _118
REMARK   53  A    between atoms: _122  and  _124
REMARK   54  A    between atoms: _124  and  _125
REMARK   55  A    between atoms: _124  and  _127
REMARK   56  A    between atoms: _127  and  _128
REMARK   57  A    between atoms: _128  and  _129
REMARK   58  A    between atoms: _131  and  _133
REMARK   59  A    between atoms: _133  and  _134
REMARK   60  A    between atoms: _133  and  _136
REMARK   61  A    between atoms: _136  and  _137
REMARK   62  A    between atoms: _140  and  _142
REMARK   63  A    between atoms: _142  and  _143
REMARK   64  A    between atoms: _145  and  _147
REMARK   65  A    between atoms: _147  and  _148
REMARK   66  A    between atoms: _150  and  _152
REMARK   67  A    between atoms: _152  and  _153
REMARK   68  A    between atoms: _152  and  _155
REMARK   69  A    between atoms: _155  and  _156
REMARK   70  A    between atoms: _159  and  _161
REMARK   71  A    between atoms: _161  and  _162
REMARK   72  A    between atoms: _164  and  _166
REMARK   73  A    between atoms: _166  and  _167
REMARK   74  A    between atoms: _169  and  _171
REMARK   75  A    between atoms: _171  and  _172
REMARK   76  A    between atoms: _171  and  _174
REMARK   77  A    between atoms: _174  and  _175
REMARK   78  A    between atoms: _181  and  _183
REMARK   79  A    between atoms: _183  and  _184
REMARK   80  A    between atoms: _183  and  _186
REMARK   81  A    between atoms: _186  and  _187
REMARK   82  A    between atoms: _190  and  _192
REMARK   83  A    between atoms: _192  and  _193
REMARK   84  A    between atoms: _192  and  _195
REMARK   85  A    between atoms: _195  and  _196
REMARK   86  A    between atoms: _199  and  _201
REMARK   87  A    between atoms: _201  and  _202
REMARK   88  A    between atoms: _201  and  _204
REMARK   89  A    between atoms: _204  and  _205
REMARK   90  A    between atoms: _209  and  _210
REMARK   91  A    between atoms: _215  and  _217
REMARK   92  A    between atoms: _217  and  _218
REMARK   93  A    between atoms: _217  and  _220
REMARK   94  A    between atoms: _223  and  _225
REMARK   95  A    between atoms: _225  and  _226
REMARK   96  A    between atoms: _225  and  _228
REMARK   97  A    between atoms: _228  and  _229
REMARK   98  A    between atoms: _234  and  _236
REMARK   99  A    between atoms: _236  and  _237
REMARK  100  A    between atoms: _236  and  _239
REMARK  101  A    between atoms: _239  and  _240
REMARK  102  A    between atoms: _243  and  _245
REMARK  103  A    between atoms: _245  and  _246
REMARK  104  A    between atoms: _245  and  _248
REMARK  105  A    between atoms: _248  and  _249
REMARK  106  A    between atoms: _252  and  _254
REMARK  107  A    between atoms: _254  and  _255
REMARK  108  A    between atoms: _257  and  _259
REMARK  109  A    between atoms: _259  and  _260
REMARK  110  A    between atoms: _259  and  _262
REMARK  111  A    between atoms: _262  and  _263
REMARK  112  A    between atoms: _263  and  _264
REMARK  113  A    between atoms: _264  and  _265
REMARK  114  A    between atoms: _274  and  _276
REMARK  115  A    between atoms: _276  and  _277
REMARK  116  A    between atoms: _276  and  _279
REMARK  117  A    between atoms: _279  and  _280
REMARK  118  A    between atoms: _285  and  _287
REMARK  119  A    between atoms: _287  and  _288
REMARK  120  A    between atoms: _287  and  _290
REMARK  121  A    between atoms: _290  and  _291
REMARK  122  A    between atoms: _291  and  _292
REMARK  123  A    between atoms: _292  and  _293
REMARK  124  A    between atoms: _303  and  _304
REMARK  125  A    between atoms: _309  and  _311
REMARK  126  A    between atoms: _311  and  _312
REMARK  127  A    between atoms: _311  and  _314
REMARK  128  A    between atoms: _314  and  _315
REMARK  129  A    between atoms: _318  and  _320
REMARK  130  A    between atoms: _320  and  _321
REMARK  131  A    between atoms: _320  and  _323
REMARK  132  A    between atoms: _323  and  _324
REMARK  133  A    between atoms: _327  and  _329
REMARK  134  A    between atoms: _329  and  _330
REMARK  135  A    between atoms: _329  and  _332
REMARK  136  A    between atoms: _332  and  _333
REMARK  137  A    between atoms: _336  and  _338
REMARK  138  A    between atoms: _338  and  _339
REMARK  139  A    between atoms: _338  and  _341
REMARK  140  A    between atoms: _341  and  _342
REMARK  141  A    between atoms: _345  and  _347
REMARK  142  A    between atoms: _347  and  _348
REMARK  143  A    between atoms: _347  and  _350
REMARK  144  A    between atoms: _350  and  _351
REMARK  145  A    between atoms: _354  and  _356
REMARK  146  A    between atoms: _356  and  _357
REMARK  147  A    between atoms: _359  and  _361
REMARK  148  A    between atoms: _361  and  _362
REMARK  149  A    between atoms: _365  and  _367
REMARK  150  A    between atoms: _367  and  _368
REMARK  151  A    between atoms: _367  and  _370
REMARK  152  A    between atoms: _370  and  _371
REMARK  153  A    between atoms: _374  and  _376
REMARK  154  A    between atoms: _376  and  _377
REMARK  155  A    between atoms: _376  and  _379
REMARK  156  A    between atoms: _379  and  _380
REMARK  157  A    between atoms: _383  and  _385
REMARK  158  A    between atoms: _385  and  _386
REMARK  159  A    between atoms: _385  and  _388
REMARK  160  A    between atoms: _388  and  _389
REMARK  161  A    between atoms: _392  and  _394
REMARK  162  A    between atoms: _394  and  _395
REMARK  163  A    between atoms: _394  and  _397
REMARK  164  A    between atoms: _400  and  _402
REMARK  165  A    between atoms: _402  and  _403
REMARK  166  A    between atoms: _402  and  _405
REMARK  167  A    between atoms: _405  and  _406
REMARK  168  A    between atoms: _409  and  _411
REMARK  169  A    between atoms: _411  and  _412
REMARK  170  A    between atoms: _414  and  _416
REMARK  171  A    between atoms: _416  and  _417
REMARK  172  A    between atoms: _419  and  _421
REMARK  173  A    between atoms: _421  and  _422
REMARK  174  A    between atoms: _421  and  _424
REMARK  175  A    between atoms: _424  and  _425
REMARK  176  A    between atoms: _428  and  _430
REMARK  177  A    between atoms: _430  and  _431
REMARK  178  A    between atoms: _433  and  _435
REMARK  179  A    between atoms: _435  and  _436
REMARK  180  A    between atoms: _438  and  _440
REMARK  181  A    between atoms: _440  and  _441
REMARK  182  A    between atoms: _440  and  _443
REMARK  183  A    between atoms: _443  and  _444
REMARK  184  A    between atoms: _450  and  _452
REMARK  185  A    between atoms: _452  and  _453
REMARK  186  A    between atoms: _452  and  _455
REMARK  187  A    between atoms: _455  and  _456
REMARK  188  A    between atoms: _459  and  _461
REMARK  189  A    between atoms: _461  and  _462
REMARK  190  A    between atoms: _461  and  _464
REMARK  191  A    between atoms: _464  and  _465
REMARK  192  A    between atoms: _468  and  _470
REMARK  193  A    between atoms: _470  and  _471
REMARK  194  A    between atoms: _470  and  _473
REMARK  195  A    between atoms: _473  and  _474
REMARK  196  A    between atoms: _478  and  _479
REMARK  197  A    between atoms: _484  and  _486
REMARK  198  A    between atoms: _486  and  _487
REMARK  199  A    between atoms: _486  and  _489
REMARK  200  A    between atoms: _492  and  _494
REMARK  201  A    between atoms: _494  and  _495
REMARK  202  A    between atoms: _494  and  _497
REMARK  203  A    between atoms: _497  and  _498
REMARK  204  A    between atoms: _503  and  _505
REMARK  205  A    between atoms: _505  and  _506
REMARK  206  A    between atoms: _505  and  _508
REMARK  207  A    between atoms: _508  and  _509
REMARK  208  A    between atoms: _512  and  _514
REMARK  209  A    between atoms: _514  and  _515
REMARK  210  A    between atoms: _514  and  _517
REMARK  211  A    between atoms: _517  and  _518
REMARK  212  A    between atoms: _521  and  _523
REMARK  213  A    between atoms: _523  and  _524
REMARK  214  A    between atoms: _526  and  _528
REMARK  215  A    between atoms: _528  and  _529
REMARK  216  A    between atoms: _528  and  _531
REMARK  217  A    between atoms: _531  and  _532
REMARK  218  A    between atoms: _532  and  _533
REMARK  219  A    between atoms: _533  and  _534
REMARK                            x       y       z     vdW  Elec       q    Type
REMARK                         _______ _______ _______ _____ _____    ______ ____
ROOT
ATOM      1  O   HOH     1       3.151  16.985  15.980  0.00  0.00    +0.000 OA
ENDROOT
TORSDOF 0
REMARK  Name = ../refined-set-2016/2o4p/2o4p_pocket.pdb
REMARK  219 active torsions:
REMARK  status: ('A' for Active; 'I' for Inactive)
REMARK    1  A    between atoms: _1  and  _3
REMARK    2  A    between atoms: _3  and  _4
REMARK    3  A    between atoms: _3  and  _6
REMARK    4  A    between atoms: _6  and  _7
REMARK    5  A    between atoms: _7  and  _8
REMARK    6  A    between atoms: _8  and  _9
REMARK    7  A    between atoms: _18  and  _20
REMARK    8  A    between atoms: _20  and  _21
REMARK    9  A    between atoms: _20  and  _23
REMARK   10  A    between atoms: _23  and  _24
REMARK   11  A    between atoms: _27  and  _29
REMARK   12  A    between atoms: _29  and  _30
REMARK   13  A    between atoms: _29  and  _32
REMARK   14  A    between atoms: _32  and  _33
REMARK   15  A    between atoms: _36  and  _38
REMARK   16  A    between atoms: _38  and  _39
REMARK   17  A    between atoms: _38  and  _41
REMARK   18  A    between atoms: _41  and  _42
REMARK   19  A    between atoms: _45  and  _47
REMARK   20  A    between atoms: _47  and  _48
REMARK   21  A    between atoms: _47  and  _50
REMARK   22  A    between atoms: _50  and  _51
REMARK   23  A    between atoms: _54  and  _56
REMARK   24  A    between atoms: _56  and  _57
REMARK   25  A    between atoms: _56  and  _59
REMARK   26  A    between atoms: _59  and  _60
REMARK   27  A    between atoms: _63  and  _65
REMARK   28  A    between atoms: _65  and  _66
REMARK   29  A    between atoms: _68  and  _70
REMARK   30  A    between atoms: _70  and  _71
REMARK   31  A    between atoms: _74  and  _76
REMARK   32  A    between atoms: _76  and  _77
REMARK   33  A    between atoms: _76  and  _79
REMARK   34  A    between atoms: _79  and  _80
REMARK   35  A    between atoms: _83  and  _85
REMARK   36  A    between atoms: _85  and  _86
REMARK   37  A    between atoms: _85  and  _88
REMARK   38  A    between atoms: _88  and  _89
REMARK   39  A    between atoms: _92  and  _94
REMARK   40  A    between atoms: _94  and  _95
REMARK   41  A    between atoms: _94  and  _97
REMARK   42  A    between atoms: _97  and  _98
REMARK   43  A    between atoms: _101  and  _103
REMARK   44  A    between atoms: _103  and  _104
REMARK   45  A    between atoms: _103  and  _106
REMARK   46  A    between atoms: _109  and  _111
REMARK   47  A    between atoms: _111  and  _112
REMARK   48  A    between atoms: _111  and  _114
REMARK   49  A    between atoms: _114  and  _115
REMARK   50  A    between atoms: _115  and  _116
REMARK   51  A    between atoms: _116  and  _117
REMARK   52  A    between atoms: _117  and  _118
REMARK   53  A    between atoms: _122  and  _124
REMARK   54  A    between atoms: _124  and  _125
REMARK   55  A    between atoms: _124  and  _127
REMARK   56  A    between atoms: _127  and  _128
REMARK   57  A    between atoms: _128  and  _129
REMARK   58  A    between atoms: _131  and  _133
REMARK   59  A    between atoms: _133  and  _134
REMARK   60  A    between atoms: _133  and  _136
REMARK   61  A    between atoms: _136  and  _137
REMARK   62  A    between atoms: _140  and  _142
REMARK   63  A    between atoms: _142  and  _143
REMARK   64  A    between atoms: _145  and  _147
REMARK   65  A    between atoms: _147  and  _148
REMARK   66  A    between atoms: _150  and  _152
REMARK   67  A    between atoms: _152  and  _153
REMARK   68  A    between atoms: _152  and  _155
REMARK   69  A    between atoms: _155  and  _156
REMARK   70  A    between atoms: _159  and  _161
REMARK   71  A    between atoms: _161  and  _162
REMARK   72  A    between atoms: _164  and  _166
REMARK   73  A    between atoms: _166  and  _167
REMARK   74  A    between atoms: _169  and  _171
REMARK   75  A    between atoms: _171  and  _172
REMARK   76  A    between atoms: _171  and  _174
REMARK   77  A    between atoms: _174  and  _175
REMARK   78  A    between atoms: _181  and  _183
REMARK   79  A    between atoms: _183  and  _184
REMARK   80  A    between atoms: _183  and  _186
REMARK   81  A    between atoms: _186  and  _187
REMARK   82  A    between atoms: _190  and  _192
REMARK   83  A    between atoms: _192  and  _193
REMARK   84  A    between atoms: _192  and  _195
REMARK   85  A    between atoms: _195  and  _196
REMARK   86  A    between atoms: _199  and  _201
REMARK   87  A    between atoms: _201  and  _202
REMARK   88  A    between atoms: _201  and  _204
REMARK   89  A    between atoms: _204  and  _205
REMARK   90  A    between atoms: _209  and  _210
REMARK   91  A    between atoms: _215  and  _217
REMARK   92  A    between atoms: _217  and  _218
REMARK   93  A    between atoms: _217  and  _220
REMARK   94  A    between atoms: _223  and  _225
REMARK   95  A    between atoms: _225  and  _226
REMARK   96  A    between atoms: _225  and  _228
REMARK   97  A    between atoms: _228  and  _229
REMARK   98  A    between atoms: _234  and  _236
REMARK   99  A    between atoms: _236  and  _237
REMARK  100  A    between atoms: _236  and  _239
REMARK  101  A    between atoms: _239  and  _240
REMARK  102  A    between atoms: _243  and  _245
REMARK  103  A    between atoms: _245  and  _246
REMARK  104  A    between atoms: _245  and  _248
REMARK  105  A    between atoms: _248  and  _249
REMARK  106  A    between atoms: _252  and  _254
REMARK  107  A    between atoms: _254  and  _255
REMARK  108  A    between atoms: _257  and  _259
REMARK  109  A    between atoms: _259  and  _260
REMARK  110  A    between atoms: _259  and  _262
REMARK  111  A    between atoms: _262  and  _263
REMARK  112  A    between atoms: _263  and  _264
REMARK  113  A    between atoms: _264  and  _265
REMARK  114  A    between atoms: _274  and  _276
REMARK  115  A    between atoms: _276  and  _277
REMARK  116  A    between atoms: _276  and  _279
REMARK  117  A    between atoms: _279  and  _280
REMARK  118  A    between atoms: _285  and  _287
REMARK  119  A    between atoms: _287  and  _288
REMARK  120  A    between atoms: _287  and  _290
REMARK  121  A    between atoms: _290  and  _291
REMARK  122  A    between atoms: _291  and  _292
REMARK  123  A    between atoms: _292  and  _293
REMARK  124  A    between atoms: _303  and  _304
REMARK  125  A    between atoms: _309  and  _311
REMARK  126  A    between atoms: _311  and  _312
REMARK  127  A    between atoms: _311  and  _314
REMARK  128  A    between atoms: _314  and  _315
REMARK  129  A    between atoms: _318  and  _320
REMARK  130  A    between atoms: _320  and  _321
REMARK  131  A    between atoms: _320  and  _323
REMARK  132  A    between atoms: _323  and  _324
REMARK  133  A    between atoms: _327  and  _329
REMARK  134  A    between atoms: _329  and  _330
REMARK  135  A    between atoms: _329  and  _332
REMARK  136  A    between atoms: _332  and  _333
REMARK  137  A    between atoms: _336  and  _338
REMARK  138  A    between atoms: _338  and  _339
REMARK  139  A    between atoms: _338  and  _341
REMARK  140  A    between atoms: _341  and  _342
REMARK  141  A    between atoms: _345  and  _347
REMARK  142  A    between atoms: _347  and  _348
REMARK  143  A    between atoms: _347  and  _350
REMARK  144  A    between atoms: _350  and  _351
REMARK  145  A    between atoms: _354  and  _356
REMARK  146  A    between atoms: _356  and  _357
REMARK  147  A    between atoms: _359  and  _361
REMARK  148  A    between atoms: _361  and  _362
REMARK  149  A    between atoms: _365  and  _367
REMARK  150  A    between atoms: _367  and  _368
REMARK  151  A    between atoms: _367  and  _370
REMARK  152  A    between atoms: _370  and  _371
REMARK  153  A    between atoms: _374  and  _376
REMARK  154  A    between atoms: _376  and  _377
REMARK  155  A    between atoms: _376  and  _379
REMARK  156  A    between atoms: _379  and  _380
REMARK  157  A    between atoms: _383  and  _385
REMARK  158  A    between atoms: _385  and  _386
REMARK  159  A    between atoms: _385  and  _388
REMARK  160  A    between atoms: _388  and  _389
REMARK  161  A    between atoms: _392  and  _394
REMARK  162  A    between atoms: _394  and  _395
REMARK  163  A    between atoms: _394  and  _397
REMARK  164  A    between atoms: _400  and  _402
REMARK  165  A    between atoms: _402  and  _403
REMARK  166  A    between atoms: _402  and  _405
REMARK  167  A    between atoms: _405  and  _406
REMARK  168  A    between atoms: _409  and  _411
REMARK  169  A    between atoms: _411  and  _412
REMARK  170  A    between atoms: _414  and  _416
REMARK  171  A    between atoms: _416  and  _417
REMARK  172  A    between atoms: _419  and  _421
REMARK  173  A    between atoms: _421  and  _422
REMARK  174  A    between atoms: _421  and  _424
REMARK  175  A    between atoms: _424  and  _425
REMARK  176  A    between atoms: _428  and  _430
REMARK  177  A    between atoms: _430  and  _431
REMARK  178  A    between atoms: _433  and  _435
REMARK  179  A    between atoms: _435  and  _436
REMARK  180  A    between atoms: _438  and  _440
REMARK  181  A    between atoms: _440  and  _441
REMARK  182  A    between atoms: _440  and  _443
REMARK  183  A    between atoms: _443  and  _444
REMARK  184  A    between atoms: _450  and  _452
REMARK  185  A    between atoms: _452  and  _453
REMARK  186  A    between atoms: _452  and  _455
REMARK  187  A    between atoms: _455  and  _456
REMARK  188  A    between atoms: _459  and  _461
REMARK  189  A    between atoms: _461  and  _462
REMARK  190  A    between atoms: _461  and  _464
REMARK  191  A    between atoms: _464  and  _465
REMARK  192  A    between atoms: _468  and  _470
REMARK  193  A    between atoms: _470  and  _471
REMARK  194  A    between atoms: _470  and  _473
REMARK  195  A    between atoms: _473  and  _474
REMARK  196  A    between atoms: _478  and  _479
REMARK  197  A    between atoms: _484  and  _486
REMARK  198  A    between atoms: _486  and  _487
REMARK  199  A    between atoms: _486  and  _489
REMARK  200  A    between atoms: _492  and  _494
REMARK  201  A    between atoms: _494  and  _495
REMARK  202  A    between atoms: _494  and  _497
REMARK  203  A    between atoms: _497  and  _498
REMARK  204  A    between atoms: _503  and  _505
REMARK  205  A    between atoms: _505  and  _506
REMARK  206  A    between atoms: _505  and  _508
REMARK  207  A    between atoms: _508  and  _509
REMARK  208  A    between atoms: _512  and  _514
REMARK  209  A    between atoms: _514  and  _515
REMARK  210  A    between atoms: _514  and  _517
REMARK  211  A    between atoms: _517  and  _518
REMARK  212  A    between atoms: _521  and  _523
REMARK  213  A    between atoms: _523  and  _524
REMARK  214  A    between atoms: _526  and  _528
REMARK  215  A    between atoms: _528  and  _529
REMARK  216  A    between atoms: _528  and  _531
REMARK  217  A    between atoms: _531  and  _532
REMARK  218  A    between atoms: _532  and  _533
REMARK  219  A    between atoms: _533  and  _534
REMARK                            x       y       z     vdW  Elec       q    Type
REMARK                         _______ _______ _______ _____ _____    ______ ____
ROOT
ATOM      1  O   HOH     1      21.671  26.952  12.436  0.00  0.00    +0.000 OA
ENDROOT
TORSDOF 0
REMARK  Name = ../refined-set-2016/2o4p/2o4p_pocket.pdb
REMARK  219 active torsions:
REMARK  status: ('A' for Active; 'I' for Inactive)
REMARK    1  A    between atoms: _1  and  _3
REMARK    2  A    between atoms: _3  and  _4
REMARK    3  A    between atoms: _3  and  _6
REMARK    4  A    between atoms: _6  and  _7
REMARK    5  A    between atoms: _7  and  _8
REMARK    6  A    between atoms: _8  and  _9
REMARK    7  A    between atoms: _18  and  _20
REMARK    8  A    between atoms: _20  and  _21
REMARK    9  A    between atoms: _20  and  _23
REMARK   10  A    between atoms: _23  and  _24
REMARK   11  A    between atoms: _27  and  _29
REMARK   12  A    between atoms: _29  and  _30
REMARK   13  A    between atoms: _29  and  _32
REMARK   14  A    between atoms: _32  and  _33
REMARK   15  A    between atoms: _36  and  _38
REMARK   16  A    between atoms: _38  and  _39
REMARK   17  A    between atoms: _38  and  _41
REMARK   18  A    between atoms: _41  and  _42
REMARK   19  A    between atoms: _45  and  _47
REMARK   20  A    between atoms: _47  and  _48
REMARK   21  A    between atoms: _47  and  _50
REMARK   22  A    between atoms: _50  and  _51
REMARK   23  A    between atoms: _54  and  _56
REMARK   24  A    between atoms: _56  and  _57
REMARK   25  A    between atoms: _56  and  _59
REMARK   26  A    between atoms: _59  and  _60
REMARK   27  A    between atoms: _63  and  _65
REMARK   28  A    between atoms: _65  and  _66
REMARK   29  A    between atoms: _68  and  _70
REMARK   30  A    between atoms: _70  and  _71
REMARK   31  A    between atoms: _74  and  _76
REMARK   32  A    between atoms: _76  and  _77
REMARK   33  A    between atoms: _76  and  _79
REMARK   34  A    between atoms: _79  and  _80
REMARK   35  A    between atoms: _83  and  _85
REMARK   36  A    between atoms: _85  and  _86
REMARK   37  A    between atoms: _85  and  _88
REMARK   38  A    between atoms: _88  and  _89
REMARK   39  A    between atoms: _92  and  _94
REMARK   40  A    between atoms: _94  and  _95
REMARK   41  A    between atoms: _94  and  _97
REMARK   42  A    between atoms: _97  and  _98
REMARK   43  A    between atoms: _101  and  _103
REMARK   44  A    between atoms: _103  and  _104
REMARK   45  A    between atoms: _103  and  _106
REMARK   46  A    between atoms: _109  and  _111
REMARK   47  A    between atoms: _111  and  _112
REMARK   48  A    between atoms: _111  and  _114
REMARK   49  A    between atoms: _114  and  _115
REMARK   50  A    between atoms: _115  and  _116
REMARK   51  A    between atoms: _116  and  _117
REMARK   52  A    between atoms: _117  and  _118
REMARK   53  A    between atoms: _122  and  _124
REMARK   54  A    between atoms: _124  and  _125
REMARK   55  A    between atoms: _124  and  _127
REMARK   56  A    between atoms: _127  and  _128
REMARK   57  A    between atoms: _128  and  _129
REMARK   58  A    between atoms: _131  and  _133
REMARK   59  A    between atoms: _133  and  _134
REMARK   60  A    between atoms: _133  and  _136
REMARK   61  A    between atoms: _136  and  _137
REMARK   62  A    between atoms: _140  and  _142
REMARK   63  A    between atoms: _142  and  _143
REMARK   64  A    between atoms: _145  and  _147
REMARK   65  A    between atoms: _147  and  _148
REMARK   66  A    between atoms: _150  and  _152
REMARK   67  A    between atoms: _152  and  _153
REMARK   68  A    between atoms: _152  and  _155
REMARK   69  A    between atoms: _155  and  _156
REMARK   70  A    between atoms: _159  and  _161
REMARK   71  A    between atoms: _161  and  _162
REMARK   72  A    between atoms: _164  and  _166
REMARK   73  A    between atoms: _166  and  _167
REMARK   74  A    between atoms: _169  and  _171
REMARK   75  A    between atoms: _171  and  _172
REMARK   76  A    between atoms: _171  and  _174
REMARK   77  A    between atoms: _174  and  _175
REMARK   78  A    between atoms: _181  and  _183
REMARK   79  A    between atoms: _183  and  _184
REMARK   80  A    between atoms: _183  and  _186
REMARK   81  A    between atoms: _186  and  _187
REMARK   82  A    between atoms: _190  and  _192
REMARK   83  A    between atoms: _192  and  _193
REMARK   84  A    between atoms: _192  and  _195
REMARK   85  A    between atoms: _195  and  _196
REMARK   86  A    between atoms: _199  and  _201
REMARK   87  A    between atoms: _201  and  _202
REMARK   88  A    between atoms: _201  and  _204
REMARK   89  A    between atoms: _204  and  _205
REMARK   90  A    between atoms: _209  and  _210
REMARK   91  A    between atoms: _215  and  _217
REMARK   92  A    between atoms: _217  and  _218
REMARK   93  A    between atoms: _217  and  _220
REMARK   94  A    between atoms: _223  and  _225
REMARK   95  A    between atoms: _225  and  _226
REMARK   96  A    between atoms: _225  and  _228
REMARK   97  A    between atoms: _228  and  _229
REMARK   98  A    between atoms: _234  and  _236
REMARK   99  A    between atoms: _236  and  _237
REMARK  100  A    between atoms: _236  and  _239
REMARK  101  A    between atoms: _239  and  _240
REMARK  102  A    between atoms: _243  and  _245
REMARK  103  A    between atoms: _245  and  _246
REMARK  104  A    between atoms: _245  and  _248
REMARK  105  A    between atoms: _248  and  _249
REMARK  106  A    between atoms: _252  and  _254
REMARK  107  A    between atoms: _254  and  _255
REMARK  108  A    between atoms: _257  and  _259
REMARK  109  A    between atoms: _259  and  _260
REMARK  110  A    between atoms: _259  and  _262
REMARK  111  A    between atoms: _262  and  _263
REMARK  112  A    between atoms: _263  and  _264
REMARK  113  A    between atoms: _264  and  _265
REMARK  114  A    between atoms: _274  and  _276
REMARK  115  A    between atoms: _276  and  _277
REMARK  116  A    between atoms: _276  and  _279
REMARK  117  A    between atoms: _279  and  _280
REMARK  118  A    between atoms: _285  and  _287
REMARK  119  A    between atoms: _287  and  _288
REMARK  120  A    between atoms: _287  and  _290
REMARK  121  A    between atoms: _290  and  _291
REMARK  122  A    between atoms: _291  and  _292
REMARK  123  A    between atoms: _292  and  _293
REMARK  124  A    between atoms: _303  and  _304
REMARK  125  A    between atoms: _309  and  _311
REMARK  126  A    between atoms: _311  and  _312
REMARK  127  A    between atoms: _311  and  _314
REMARK  128  A    between atoms: _314  and  _315
REMARK  129  A    between atoms: _318  and  _320
REMARK  130  A    between atoms: _320  and  _321
REMARK  131  A    between atoms: _320  and  _323
REMARK  132  A    between atoms: _323  and  _324
REMARK  133  A    between atoms: _327  and  _329
REMARK  134  A    between atoms: _329  and  _330
REMARK  135  A    between atoms: _329  and  _332
REMARK  136  A    between atoms: _332  and  _333
REMARK  137  A    between atoms: _336  and  _338
REMARK  138  A    between atoms: _338  and  _339
REMARK  139  A    between atoms: _338  and  _341
REMARK  140  A    between atoms: _341  and  _342
REMARK  141  A    between atoms: _345  and  _347
REMARK  142  A    between atoms: _347  and  _348
REMARK  143  A    between atoms: _347  and  _350
REMARK  144  A    between atoms: _350  and  _351
REMARK  145  A    between atoms: _354  and  _356
REMARK  146  A    between atoms: _356  and  _357
REMARK  147  A    between atoms: _359  and  _361
REMARK  148  A    between atoms: _361  and  _362
REMARK  149  A    between atoms: _365  and  _367
REMARK  150  A    between atoms: _367  and  _368
REMARK  151  A    between atoms: _367  and  _370
REMARK  152  A    between atoms: _370  and  _371
REMARK  153  A    between atoms: _374  and  _376
REMARK  154  A    between atoms: _376  and  _377
REMARK  155  A    between atoms: _376  and  _379
REMARK  156  A    between atoms: _379  and  _380
REMARK  157  A    between atoms: _383  and  _385
REMARK  158  A    between atoms: _385  and  _386
REMARK  159  A    between atoms: _385  and  _388
REMARK  160  A    between atoms: _388  and  _389
REMARK  161  A    between atoms: _392  and  _394
REMARK  162  A    between atoms: _394  and  _395
REMARK  163  A    between atoms: _394  and  _397
REMARK  164  A    between atoms: _400  and  _402
REMARK  165  A    between atoms: _402  and  _403
REMARK  166  A    between atoms: _402  and  _405
REMARK  167  A    between atoms: _405  and  _406
REMARK  168  A    between atoms: _409  and  _411
REMARK  169  A    between atoms: _411  and  _412
REMARK  170  A    between atoms: _414  and  _416
REMARK  171  A    between atoms: _416  and  _417
REMARK  172  A    between atoms: _419  and  _421
REMARK  173  A    between atoms: _421  and  _422
REMARK  174  A    between atoms: _421  and  _424
REMARK  175  A    between atoms: _424  and  _425
REMARK  176  A    between atoms: _428  and  _430
REMARK  177  A    between atoms: _430  and  _431
REMARK  178  A    between atoms: _433  and  _435
REMARK  179  A    between atoms: _435  and  _436
REMARK  180  A    between atoms: _438  and  _440
REMARK  181  A    between atoms: _440  and  _441
REMARK  182  A    between atoms: _440  and  _443
REMARK  183  A    between atoms: _443  and  _444
REMARK  184  A    between atoms: _450  and  _452
REMARK  185  A    between atoms: _452  and  _453
REMARK  186  A    between atoms: _452  and  _455
REMARK  187  A    between atoms: _455  and  _456
REMARK  188  A    between atoms: _459  and  _461
REMARK  189  A    between atoms: _461  and  _462
REMARK  190  A    between atoms: _461  and  _464
REMARK  191  A    between atoms: _464  and  _465
REMARK  192  A    between atoms: _468  and  _470
REMARK  193  A    between atoms: _470  and  _471
REMARK  194  A    between atoms: _470  and  _473
REMARK  195  A    between atoms: _473  and  _474
REMARK  196  A    between atoms: _478  and  _479
REMARK  197  A    between atoms: _484  and  _486
REMARK  198  A    between atoms: _486  and  _487
REMARK  199  A    between atoms: _486  and  _489
REMARK  200  A    between atoms: _492  and  _494
REMARK  201  A    between atoms: _494  and  _495
REMARK  202  A    between atoms: _494  and  _497
REMARK  203  A    between atoms: _497  and  _498
REMARK  204  A    between atoms: _503  and  _505
REMARK  205  A    between atoms: _505  and  _506
REMARK  206  A    between atoms: _505  and  _508
REMARK  207  A    between atoms: _508  and  _509
REMARK  208  A    between atoms: _512  and  _514
REMARK  209  A    between atoms: _514  and  _515
REMARK  210  A    between atoms: _514  and  _517
REMARK  211  A    between atoms: _517  and  _518
REMARK  212  A    between atoms: _521  and  _523
REMARK  213  A    between atoms: _523  and  _524
REMARK  214  A    between atoms: _526  and  _528
REMARK  215  A    between atoms: _528  and  _529
REMARK  216  A    between atoms: _528  and  _531
REMARK  217  A    between atoms: _531  and  _532
REMARK  218  A    between atoms: _532  and  _533
REMARK  219  A    between atoms: _533  and  _534
REMARK                            x       y       z     vdW  Elec       q    Type
REMARK                         _______ _______ _______ _____ _____    ______ ____
ROOT
ATOM      1  O   HOH     1      10.461  12.596  21.312  0.00  0.00    +0.000 OA
ENDROOT
TORSDOF 0
REMARK  Name = ../refined-set-2016/2o4p/2o4p_pocket.pdb
REMARK  219 active torsions:
REMARK  status: ('A' for Active; 'I' for Inactive)
REMARK    1  A    between atoms: _1  and  _3
REMARK    2  A    between atoms: _3  and  _4
REMARK    3  A    between atoms: _3  and  _6
REMARK    4  A    between atoms: _6  and  _7
REMARK    5  A    between atoms: _7  and  _8
REMARK    6  A    between atoms: _8  and  _9
REMARK    7  A    between atoms: _18  and  _20
REMARK    8  A    between atoms: _20  and  _21
REMARK    9  A    between atoms: _20  and  _23
REMARK   10  A    between atoms: _23  and  _24
REMARK   11  A    between atoms: _27  and  _29
REMARK   12  A    between atoms: _29  and  _30
REMARK   13  A    between atoms: _29  and  _32
REMARK   14  A    between atoms: _32  and  _33
REMARK   15  A    between atoms: _36  and  _38
REMARK   16  A    between atoms: _38  and  _39
REMARK   17  A    between atoms: _38  and  _41
REMARK   18  A    between atoms: _41  and  _42
REMARK   19  A    between atoms: _45  and  _47
REMARK   20  A    between atoms: _47  and  _48
REMARK   21  A    between atoms: _47  and  _50
REMARK   22  A    between atoms: _50  and  _51
REMARK   23  A    between atoms: _54  and  _56
REMARK   24  A    between atoms: _56  and  _57
REMARK   25  A    between atoms: _56  and  _59
REMARK   26  A    between atoms: _59  and  _60
REMARK   27  A    between atoms: _63  and  _65
REMARK   28  A    between atoms: _65  and  _66
REMARK   29  A    between atoms: _68  and  _70
REMARK   30  A    between atoms: _70  and  _71
REMARK   31  A    between atoms: _74  and  _76
REMARK   32  A    between atoms: _76  and  _77
REMARK   33  A    between atoms: _76  and  _79
REMARK   34  A    between atoms: _79  and  _80
REMARK   35  A    between atoms: _83  and  _85
REMARK   36  A    between atoms: _85  and  _86
REMARK   37  A    between atoms: _85  and  _88
REMARK   38  A    between atoms: _88  and  _89
REMARK   39  A    between atoms: _92  and  _94
REMARK   40  A    between atoms: _94  and  _95
REMARK   41  A    between atoms: _94  and  _97
REMARK   42  A    between atoms: _97  and  _98
REMARK   43  A    between atoms: _101  and  _103
REMARK   44  A    between atoms: _103  and  _104
REMARK   45  A    between atoms: _103  and  _106
REMARK   46  A    between atoms: _109  and  _111
REMARK   47  A    between atoms: _111  and  _112
REMARK   48  A    between atoms: _111  and  _114
REMARK   49  A    between atoms: _114  and  _115
REMARK   50  A    between atoms: _115  and  _116
REMARK   51  A    between atoms: _116  and  _117
REMARK   52  A    between atoms: _117  and  _118
REMARK   53  A    between atoms: _122  and  _124
REMARK   54  A    between atoms: _124  and  _125
REMARK   55  A    between atoms: _124  and  _127
REMARK   56  A    between atoms: _127  and  _128
REMARK   57  A    between atoms: _128  and  _129
REMARK   58  A    between atoms: _131  and  _133
REMARK   59  A    between atoms: _133  and  _134
REMARK   60  A    between atoms: _133  and  _136
REMARK   61  A    between atoms: _136  and  _137
REMARK   62  A    between atoms: _140  and  _142
REMARK   63  A    between atoms: _142  and  _143
REMARK   64  A    between atoms: _145  and  _147
REMARK   65  A    between atoms: _147  and  _148
REMARK   66  A    between atoms: _150  and  _152
REMARK   67  A    between atoms: _152  and  _153
REMARK   68  A    between atoms: _152  and  _155
REMARK   69  A    between atoms: _155  and  _156
REMARK   70  A    between atoms: _159  and  _161
REMARK   71  A    between atoms: _161  and  _162
REMARK   72  A    between atoms: _164  and  _166
REMARK   73  A    between atoms: _166  and  _167
REMARK   74  A    between atoms: _169  and  _171
REMARK   75  A    between atoms: _171  and  _172
REMARK   76  A    between atoms: _171  and  _174
REMARK   77  A    between atoms: _174  and  _175
REMARK   78  A    between atoms: _181  and  _183
REMARK   79  A    between atoms: _183  and  _184
REMARK   80  A    between atoms: _183  and  _186
REMARK   81  A    between atoms: _186  and  _187
REMARK   82  A    between atoms: _190  and  _192
REMARK   83  A    between atoms: _192  and  _193
REMARK   84  A    between atoms: _192  and  _195
REMARK   85  A    between atoms: _195  and  _196
REMARK   86  A    between atoms: _199  and  _201
REMARK   87  A    between atoms: _201  and  _202
REMARK   88  A    between atoms: _201  and  _204
REMARK   89  A    between atoms: _204  and  _205
REMARK   90  A    between atoms: _209  and  _210
REMARK   91  A    between atoms: _215  and  _217
REMARK   92  A    between atoms: _217  and  _218
REMARK   93  A    between atoms: _217  and  _220
REMARK   94  A    between atoms: _223  and  _225
REMARK   95  A    between atoms: _225  and  _226
REMARK   96  A    between atoms: _225  and  _228
REMARK   97  A    between atoms: _228  and  _229
REMARK   98  A    between atoms: _234  and  _236
REMARK   99  A    between atoms: _236  and  _237
REMARK  100  A    between atoms: _236  and  _239
REMARK  101  A    between atoms: _239  and  _240
REMARK  102  A    between atoms: _243  and  _245
REMARK  103  A    between atoms: _245  and  _246
REMARK  104  A    between atoms: _245  and  _248
REMARK  105  A    between atoms: _248  and  _249
REMARK  106  A    between atoms: _252  and  _254
REMARK  107  A    between atoms: _254  and  _255
REMARK  108  A    between atoms: _257  and  _259
REMARK  109  A    between atoms: _259  and  _260
REMARK  110  A    between atoms: _259  and  _262
REMARK  111  A    between atoms: _262  and  _263
REMARK  112  A    between atoms: _263  and  _264
REMARK  113  A    between atoms: _264  and  _265
REMARK  114  A    between atoms: _274  and  _276
REMARK  115  A    between atoms: _276  and  _277
REMARK  116  A    between atoms: _276  and  _279
REMARK  117  A    between atoms: _279  and  _280
REMARK  118  A    between atoms: _285  and  _287
REMARK  119  A    between atoms: _287  and  _288
REMARK  120  A    between atoms: _287  and  _290
REMARK  121  A    between atoms: _290  and  _291
REMARK  122  A    between atoms: _291  and  _292
REMARK  123  A    between atoms: _292  and  _293
REMARK  124  A    between atoms: _303  and  _304
REMARK  125  A    between atoms: _309  and  _311
REMARK  126  A    between atoms: _311  and  _312
REMARK  127  A    between atoms: _311  and  _314
REMARK  128  A    between atoms: _314  and  _315
REMARK  129  A    between atoms: _318  and  _320
REMARK  130  A    between atoms: _320  and  _321
REMARK  131  A    between atoms: _320  and  _323
REMARK  132  A    between atoms: _323  and  _324
REMARK  133  A    between atoms: _327  and  _329
REMARK  134  A    between atoms: _329  and  _330
REMARK  135  A    between atoms: _329  and  _332
REMARK  136  A    between atoms: _332  and  _333
REMARK  137  A    between atoms: _336  and  _338
REMARK  138  A    between atoms: _338  and  _339
REMARK  139  A    between atoms: _338  and  _341
REMARK  140  A    between atoms: _341  and  _342
REMARK  141  A    between atoms: _345  and  _347
REMARK  142  A    between atoms: _347  and  _348
REMARK  143  A    between atoms: _347  and  _350
REMARK  144  A    between atoms: _350  and  _351
REMARK  145  A    between atoms: _354  and  _356
REMARK  146  A    between atoms: _356  and  _357
REMARK  147  A    between atoms: _359  and  _361
REMARK  148  A    between atoms: _361  and  _362
REMARK  149  A    between atoms: _365  and  _367
REMARK  150  A    between atoms: _367  and  _368
REMARK  151  A    between atoms: _367  and  _370
REMARK  152  A    between atoms: _370  and  _371
REMARK  153  A    between atoms: _374  and  _376
REMARK  154  A    between atoms: _376  and  _377
REMARK  155  A    between atoms: _376  and  _379
REMARK  156  A    between atoms: _379  and  _380
REMARK  157  A    between atoms: _383  and  _385
REMARK  158  A    between atoms: _385  and  _386
REMARK  159  A    between atoms: _385  and  _388
REMARK  160  A    between atoms: _388  and  _389
REMARK  161  A    between atoms: _392  and  _394
REMARK  162  A    between atoms: _394  and  _395
REMARK  163  A    between atoms: _394  and  _397
REMARK  164  A    between atoms: _400  and  _402
REMARK  165  A    between atoms: _402  and  _403
REMARK  166  A    between atoms: _402  and  _405
REMARK  167  A    between atoms: _405  and  _406
REMARK  168  A    between atoms: _409  and  _411
REMARK  169  A    between atoms: _411  and  _412
REMARK  170  A    between atoms: _414  and  _416
REMARK  171  A    between atoms: _416  and  _417
REMARK  172  A    between atoms: _419  and  _421
REMARK  173  A    between atoms: _421  and  _422
REMARK  174  A    between atoms: _421  and  _424
REMARK  175  A    between atoms: _424  and  _425
REMARK  176  A    between atoms: _428  and  _430
REMARK  177  A    between atoms: _430  and  _431
REMARK  178  A    between atoms: _433  and  _435
REMARK  179  A    between atoms: _435  and  _436
REMARK  180  A    between atoms: _438  and  _440
REMARK  181  A    between atoms: _440  and  _441
REMARK  182  A    between atoms: _440  and  _443
REMARK  183  A    between atoms: _443  and  _444
REMARK  184  A    between atoms: _450  and  _452
REMARK  185  A    between atoms: _452  and  _453
REMARK  186  A    between atoms: _452  and  _455
REMARK  187  A    between atoms: _455  and  _456
REMARK  188  A    between atoms: _459  and  _461
REMARK  189  A    between atoms: _461  and  _462
REMARK  190  A    between atoms: _461  and  _464
REMARK  191  A    between atoms: _464  and  _465
REMARK  192  A    between atoms: _468  and  _470
REMARK  193  A    between atoms: _470  and  _471
REMARK  194  A    between atoms: _470  and  _473
REMARK  195  A    between atoms: _473  and  _474
REMARK  196  A    between atoms: _478  and  _479
REMARK  197  A    between atoms: _484  and  _486
REMARK  198  A    between atoms: _486  and  _487
REMARK  199  A    between atoms: _486  and  _489
REMARK  200  A    between atoms: _492  and  _494
REMARK  201  A    between atoms: _494  and  _495
REMARK  202  A    between atoms: _494  and  _497
REMARK  203  A    between atoms: _497  and  _498
REMARK  204  A    between atoms: _503  and  _505
REMARK  205  A    between atoms: _505  and  _506
REMARK  206  A    between atoms: _505  and  _508
REMARK  207  A    between atoms: _508  and  _509
REMARK  208  A    between atoms: _512  and  _514
REMARK  209  A    between atoms: _514  and  _515
REMARK  210  A    between atoms: _514  and  _517
REMARK  211  A    between atoms: _517  and  _518
REMARK  212  A    between atoms: _521  and  _523
REMARK  213  A    between atoms: _523  and  _524
REMARK  214  A    between atoms: _526  and  _528
REMARK  215  A    between atoms: _528  and  _529
REMARK  216  A    between atoms: _528  and  _531
REMARK  217  A    between atoms: _531  and  _532
REMARK  218  A    between atoms: _532  and  _533
REMARK  219  A    between atoms: _533  and  _534
REMARK                            x       y       z     vdW  Elec       q    Type
REMARK                         _______ _______ _______ _____ _____    ______ ____
ROOT
ATOM      1  O   HOH     1       7.250  27.351  19.338  0.00  0.00    +0.000 OA
ENDROOT
TORSDOF 0
REMARK  Name = ../refined-set-2016/2o4p/2o4p_pocket.pdb
REMARK  219 active torsions:
REMARK  status: ('A' for Active; 'I' for Inactive)
REMARK    1  A    between atoms: _1  and  _3
REMARK    2  A    between atoms: _3  and  _4
REMARK    3  A    between atoms: _3  and  _6
REMARK    4  A    between atoms: _6  and  _7
REMARK    5  A    between atoms: _7  and  _8
REMARK    6  A    between atoms: _8  and  _9
REMARK    7  A    between atoms: _18  and  _20
REMARK    8  A    between atoms: _20  and  _21
REMARK    9  A    between atoms: _20  and  _23
REMARK   10  A    between atoms: _23  and  _24
REMARK   11  A    between atoms: _27  and  _29
REMARK   12  A    between atoms: _29  and  _30
REMARK   13  A    between atoms: _29  and  _32
REMARK   14  A    between atoms: _32  and  _33
REMARK   15  A    between atoms: _36  and  _38
REMARK   16  A    between atoms: _38  and  _39
REMARK   17  A    between atoms: _38  and  _41
REMARK   18  A    between atoms: _41  and  _42
REMARK   19  A    between atoms: _45  and  _47
REMARK   20  A    between atoms: _47  and  _48
REMARK   21  A    between atoms: _47  and  _50
REMARK   22  A    between atoms: _50  and  _51
REMARK   23  A    between atoms: _54  and  _56
REMARK   24  A    between atoms: _56  and  _57
REMARK   25  A    between atoms: _56  and  _59
REMARK   26  A    between atoms: _59  and  _60
REMARK   27  A    between atoms: _63  and  _65
REMARK   28  A    between atoms: _65  and  _66
REMARK   29  A    between atoms: _68  and  _70
REMARK   30  A    between atoms: _70  and  _71
REMARK   31  A    between atoms: _74  and  _76
REMARK   32  A    between atoms: _76  and  _77
REMARK   33  A    between atoms: _76  and  _79
REMARK   34  A    between atoms: _79  and  _80
REMARK   35  A    between atoms: _83  and  _85
REMARK   36  A    between atoms: _85  and  _86
REMARK   37  A    between atoms: _85  and  _88
REMARK   38  A    between atoms: _88  and  _89
REMARK   39  A    between atoms: _92  and  _94
REMARK   40  A    between atoms: _94  and  _95
REMARK   41  A    between atoms: _94  and  _97
REMARK   42  A    between atoms: _97  and  _98
REMARK   43  A    between atoms: _101  and  _103
REMARK   44  A    between atoms: _103  and  _104
REMARK   45  A    between atoms: _103  and  _106
REMARK   46  A    between atoms: _109  and  _111
REMARK   47  A    between atoms: _111  and  _112
REMARK   48  A    between atoms: _111  and  _114
REMARK   49  A    between atoms: _114  and  _115
REMARK   50  A    between atoms: _115  and  _116
REMARK   51  A    between atoms: _116  and  _117
REMARK   52  A    between atoms: _117  and  _118
REMARK   53  A    between atoms: _122  and  _124
REMARK   54  A    between atoms: _124  and  _125
REMARK   55  A    between atoms: _124  and  _127
REMARK   56  A    between atoms: _127  and  _128
REMARK   57  A    between atoms: _128  and  _129
REMARK   58  A    between atoms: _131  and  _133
REMARK   59  A    between atoms: _133  and  _134
REMARK   60  A    between atoms: _133  and  _136
REMARK   61  A    between atoms: _136  and  _137
REMARK   62  A    between atoms: _140  and  _142
REMARK   63  A    between atoms: _142  and  _143
REMARK   64  A    between atoms: _145  and  _147
REMARK   65  A    between atoms: _147  and  _148
REMARK   66  A    between atoms: _150  and  _152
REMARK   67  A    between atoms: _152  and  _153
REMARK   68  A    between atoms: _152  and  _155
REMARK   69  A    between atoms: _155  and  _156
REMARK   70  A    between atoms: _159  and  _161
REMARK   71  A    between atoms: _161  and  _162
REMARK   72  A    between atoms: _164  and  _166
REMARK   73  A    between atoms: _166  and  _167
REMARK   74  A    between atoms: _169  and  _171
REMARK   75  A    between atoms: _171  and  _172
REMARK   76  A    between atoms: _171  and  _174
REMARK   77  A    between atoms: _174  and  _175
REMARK   78  A    between atoms: _181  and  _183
REMARK   79  A    between atoms: _183  and  _184
REMARK   80  A    between atoms: _183  and  _186
REMARK   81  A    between atoms: _186  and  _187
REMARK   82  A    between atoms: _190  and  _192
REMARK   83  A    between atoms: _192  and  _193
REMARK   84  A    between atoms: _192  and  _195
REMARK   85  A    between atoms: _195  and  _196
REMARK   86  A    between atoms: _199  and  _201
REMARK   87  A    between atoms: _201  and  _202
REMARK   88  A    between atoms: _201  and  _204
REMARK   89  A    between atoms: _204  and  _205
REMARK   90  A    between atoms: _209  and  _210
REMARK   91  A    between atoms: _215  and  _217
REMARK   92  A    between atoms: _217  and  _218
REMARK   93  A    between atoms: _217  and  _220
REMARK   94  A    between atoms: _223  and  _225
REMARK   95  A    between atoms: _225  and  _226
REMARK   96  A    between atoms: _225  and  _228
REMARK   97  A    between atoms: _228  and  _229
REMARK   98  A    between atoms: _234  and  _236
REMARK   99  A    between atoms: _236  and  _237
REMARK  100  A    between atoms: _236  and  _239
REMARK  101  A    between atoms: _239  and  _240
REMARK  102  A    between atoms: _243  and  _245
REMARK  103  A    between atoms: _245  and  _246
REMARK  104  A    between atoms: _245  and  _248
REMARK  105  A    between atoms: _248  and  _249
REMARK  106  A    between atoms: _252  and  _254
REMARK  107  A    between atoms: _254  and  _255
REMARK  108  A    between atoms: _257  and  _259
REMARK  109  A    between atoms: _259  and  _260
REMARK  110  A    between atoms: _259  and  _262
REMARK  111  A    between atoms: _262  and  _263
REMARK  112  A    between atoms: _263  and  _264
REMARK  113  A    between atoms: _264  and  _265
REMARK  114  A    between atoms: _274  and  _276
REMARK  115  A    between atoms: _276  and  _277
REMARK  116  A    between atoms: _276  and  _279
REMARK  117  A    between atoms: _279  and  _280
REMARK  118  A    between atoms: _285  and  _287
REMARK  119  A    between atoms: _287  and  _288
REMARK  120  A    between atoms: _287  and  _290
REMARK  121  A    between atoms: _290  and  _291
REMARK  122  A    between atoms: _291  and  _292
REMARK  123  A    between atoms: _292  and  _293
REMARK  124  A    between atoms: _303  and  _304
REMARK  125  A    between atoms: _309  and  _311
REMARK  126  A    between atoms: _311  and  _312
REMARK  127  A    between atoms: _311  and  _314
REMARK  128  A    between atoms: _314  and  _315
REMARK  129  A    between atoms: _318  and  _320
REMARK  130  A    between atoms: _320  and  _321
REMARK  131  A    between atoms: _320  and  _323
REMARK  132  A    between atoms: _323  and  _324
REMARK  133  A    between atoms: _327  and  _329
REMARK  134  A    between atoms: _329  and  _330
REMARK  135  A    between atoms: _329  and  _332
REMARK  136  A    between atoms: _332  and  _333
REMARK  137  A    between atoms: _336  and  _338
REMARK  138  A    between atoms: _338  and  _339
REMARK  139  A    between atoms: _338  and  _341
REMARK  140  A    between atoms: _341  and  _342
REMARK  141  A    between atoms: _345  and  _347
REMARK  142  A    between atoms: _347  and  _348
REMARK  143  A    between atoms: _347  and  _350
REMARK  144  A    between atoms: _350  and  _351
REMARK  145  A    between atoms: _354  and  _356
REMARK  146  A    between atoms: _356  and  _357
REMARK  147  A    between atoms: _359  and  _361
REMARK  148  A    between atoms: _361  and  _362
REMARK  149  A    between atoms: _365  and  _367
REMARK  150  A    between atoms: _367  and  _368
REMARK  151  A    between atoms: _367  and  _370
REMARK  152  A    between atoms: _370  and  _371
REMARK  153  A    between atoms: _374  and  _376
REMARK  154  A    between atoms: _376  and  _377
REMARK  155  A    between atoms: _376  and  _379
REMARK  156  A    between atoms: _379  and  _380
REMARK  157  A    between atoms: _383  and  _385
REMARK  158  A    between atoms: _385  and  _386
REMARK  159  A    between atoms: _385  and  _388
REMARK  160  A    between atoms: _388  and  _389
REMARK  161  A    between atoms: _392  and  _394
REMARK  162  A    between atoms: _394  and  _395
REMARK  163  A    between atoms: _394  and  _397
REMARK  164  A    between atoms: _400  and  _402
REMARK  165  A    between atoms: _402  and  _403
REMARK  166  A    between atoms: _402  and  _405
REMARK  167  A    between atoms: _405  and  _406
REMARK  168  A    between atoms: _409  and  _411
REMARK  169  A    between atoms: _411  and  _412
REMARK  170  A    between atoms: _414  and  _416
REMARK  171  A    between atoms: _416  and  _417
REMARK  172  A    between atoms: _419  and  _421
REMARK  173  A    between atoms: _421  and  _422
REMARK  174  A    between atoms: _421  and  _424
REMARK  175  A    between atoms: _424  and  _425
REMARK  176  A    between atoms: _428  and  _430
REMARK  177  A    between atoms: _430  and  _431
REMARK  178  A    between atoms: _433  and  _435
REMARK  179  A    between atoms: _435  and  _436
REMARK  180  A    between atoms: _438  and  _440
REMARK  181  A    between atoms: _440  and  _441
REMARK  182  A    between atoms: _440  and  _443
REMARK  183  A    between atoms: _443  and  _444
REMARK  184  A    between atoms: _450  and  _452
REMARK  185  A    between atoms: _452  and  _453
REMARK  186  A    between atoms: _452  and  _455
REMARK  187  A    between atoms: _455  and  _456
REMARK  188  A    between atoms: _459  and  _461
REMARK  189  A    between atoms: _461  and  _462
REMARK  190  A    between atoms: _461  and  _464
REMARK  191  A    between atoms: _464  and  _465
REMARK  192  A    between atoms: _468  and  _470
REMARK  193  A    between atoms: _470  and  _471
REMARK  194  A    between atoms: _470  and  _473
REMARK  195  A    between atoms: _473  and  _474
REMARK  196  A    between atoms: _478  and  _479
REMARK  197  A    between atoms: _484  and  _486
REMARK  198  A    between atoms: _486  and  _487
REMARK  199  A    between atoms: _486  and  _489
REMARK  200  A    between atoms: _492  and  _494
REMARK  201  A    between atoms: _494  and  _495
REMARK  202  A    between atoms: _494  and  _497
REMARK  203  A    between atoms: _497  and  _498
REMARK  204  A    between atoms: _503  and  _505
REMARK  205  A    between atoms: _505  and  _506
REMARK  206  A    between atoms: _505  and  _508
REMARK  207  A    between atoms: _508  and  _509
REMARK  208  A    between atoms: _512  and  _514
REMARK  209  A    between atoms: _514  and  _515
REMARK  210  A    between atoms: _514  and  _517
REMARK  211  A    between atoms: _517  and  _518
REMARK  212  A    between atoms: _521  and  _523
REMARK  213  A    between atoms: _523  and  _524
REMARK  214  A    between atoms: _526  and  _528
REMARK  215  A    between atoms: _528  and  _529
REMARK  216  A    between atoms: _528  and  _531
REMARK  217  A    between atoms: _531  and  _532
REMARK  218  A    between atoms: _532  and  _533
REMARK  219  A    between atoms: _533  and  _534
REMARK                            x       y       z     vdW  Elec       q    Type
REMARK                         _______ _______ _______ _____ _____    ______ ____
ROOT
ATOM      1  O   HOH     1      19.971  25.090   8.795  0.00  0.00    +0.000 OA
ENDROOT
TORSDOF 0
REMARK  Name = ../refined-set-2016/2o4p/2o4p_pocket.pdb
REMARK  219 active torsions:
REMARK  status: ('A' for Active; 'I' for Inactive)
REMARK    1  A    between atoms: _1  and  _3
REMARK    2  A    between atoms: _3  and  _4
REMARK    3  A    between atoms: _3  and  _6
REMARK    4  A    between atoms: _6  and  _7
REMARK    5  A    between atoms: _7  and  _8
REMARK    6  A    between atoms: _8  and  _9
REMARK    7  A    between atoms: _18  and  _20
REMARK    8  A    between atoms: _20  and  _21
REMARK    9  A    between atoms: _20  and  _23
REMARK   10  A    between atoms: _23  and  _24
REMARK   11  A    between atoms: _27  and  _29
REMARK   12  A    between atoms: _29  and  _30
REMARK   13  A    between atoms: _29  and  _32
REMARK   14  A    between atoms: _32  and  _33
REMARK   15  A    between atoms: _36  and  _38
REMARK   16  A    between atoms: _38  and  _39
REMARK   17  A    between atoms: _38  and  _41
REMARK   18  A    between atoms: _41  and  _42
REMARK   19  A    between atoms: _45  and  _47
REMARK   20  A    between atoms: _47  and  _48
REMARK   21  A    between atoms: _47  and  _50
REMARK   22  A    between atoms: _50  and  _51
REMARK   23  A    between atoms: _54  and  _56
REMARK   24  A    between atoms: _56  and  _57
REMARK   25  A    between atoms: _56  and  _59
REMARK   26  A    between atoms: _59  and  _60
REMARK   27  A    between atoms: _63  and  _65
REMARK   28  A    between atoms: _65  and  _66
REMARK   29  A    between atoms: _68  and  _70
REMARK   30  A    between atoms: _70  and  _71
REMARK   31  A    between atoms: _74  and  _76
REMARK   32  A    between atoms: _76  and  _77
REMARK   33  A    between atoms: _76  and  _79
REMARK   34  A    between atoms: _79  and  _80
REMARK   35  A    between atoms: _83  and  _85
REMARK   36  A    between atoms: _85  and  _86
REMARK   37  A    between atoms: _85  and  _88
REMARK   38  A    between atoms: _88  and  _89
REMARK   39  A    between atoms: _92  and  _94
REMARK   40  A    between atoms: _94  and  _95
REMARK   41  A    between atoms: _94  and  _97
REMARK   42  A    between atoms: _97  and  _98
REMARK   43  A    between atoms: _101  and  _103
REMARK   44  A    between atoms: _103  and  _104
REMARK   45  A    between atoms: _103  and  _106
REMARK   46  A    between atoms: _109  and  _111
REMARK   47  A    between atoms: _111  and  _112
REMARK   48  A    between atoms: _111  and  _114
REMARK   49  A    between atoms: _114  and  _115
REMARK   50  A    between atoms: _115  and  _116
REMARK   51  A    between atoms: _116  and  _117
REMARK   52  A    between atoms: _117  and  _118
REMARK   53  A    between atoms: _122  and  _124
REMARK   54  A    between atoms: _124  and  _125
REMARK   55  A    between atoms: _124  and  _127
REMARK   56  A    between atoms: _127  and  _128
REMARK   57  A    between atoms: _128  and  _129
REMARK   58  A    between atoms: _131  and  _133
REMARK   59  A    between atoms: _133  and  _134
REMARK   60  A    between atoms: _133  and  _136
REMARK   61  A    between atoms: _136  and  _137
REMARK   62  A    between atoms: _140  and  _142
REMARK   63  A    between atoms: _142  and  _143
REMARK   64  A    between atoms: _145  and  _147
REMARK   65  A    between atoms: _147  and  _148
REMARK   66  A    between atoms: _150  and  _152
REMARK   67  A    between atoms: _152  and  _153
REMARK   68  A    between atoms: _152  and  _155
REMARK   69  A    between atoms: _155  and  _156
REMARK   70  A    between atoms: _159  and  _161
REMARK   71  A    between atoms: _161  and  _162
REMARK   72  A    between atoms: _164  and  _166
REMARK   73  A    between atoms: _166  and  _167
REMARK   74  A    between atoms: _169  and  _171
REMARK   75  A    between atoms: _171  and  _172
REMARK   76  A    between atoms: _171  and  _174
REMARK   77  A    between atoms: _174  and  _175
REMARK   78  A    between atoms: _181  and  _183
REMARK   79  A    between atoms: _183  and  _184
REMARK   80  A    between atoms: _183  and  _186
REMARK   81  A    between atoms: _186  and  _187
REMARK   82  A    between atoms: _190  and  _192
REMARK   83  A    between atoms: _192  and  _193
REMARK   84  A    between atoms: _192  and  _195
REMARK   85  A    between atoms: _195  and  _196
REMARK   86  A    between atoms: _199  and  _201
REMARK   87  A    between atoms: _201  and  _202
REMARK   88  A    between atoms: _201  and  _204
REMARK   89  A    between atoms: _204  and  _205
REMARK   90  A    between atoms: _209  and  _210
REMARK   91  A    between atoms: _215  and  _217
REMARK   92  A    between atoms: _217  and  _218
REMARK   93  A    between atoms: _217  and  _220
REMARK   94  A    between atoms: _223  and  _225
REMARK   95  A    between atoms: _225  and  _226
REMARK   96  A    between atoms: _225  and  _228
REMARK   97  A    between atoms: _228  and  _229
REMARK   98  A    between atoms: _234  and  _236
REMARK   99  A    between atoms: _236  and  _237
REMARK  100  A    between atoms: _236  and  _239
REMARK  101  A    between atoms: _239  and  _240
REMARK  102  A    between atoms: _243  and  _245
REMARK  103  A    between atoms: _245  and  _246
REMARK  104  A    between atoms: _245  and  _248
REMARK  105  A    between atoms: _248  and  _249
REMARK  106  A    between atoms: _252  and  _254
REMARK  107  A    between atoms: _254  and  _255
REMARK  108  A    between atoms: _257  and  _259
REMARK  109  A    between atoms: _259  and  _260
REMARK  110  A    between atoms: _259  and  _262
REMARK  111  A    between atoms: _262  and  _263
REMARK  112  A    between atoms: _263  and  _264
REMARK  113  A    between atoms: _264  and  _265
REMARK  114  A    between atoms: _274  and  _276
REMARK  115  A    between atoms: _276  and  _277
REMARK  116  A    between atoms: _276  and  _279
REMARK  117  A    between atoms: _279  and  _280
REMARK  118  A    between atoms: _285  and  _287
REMARK  119  A    between atoms: _287  and  _288
REMARK  120  A    between atoms: _287  and  _290
REMARK  121  A    between atoms: _290  and  _291
REMARK  122  A    between atoms: _291  and  _292
REMARK  123  A    between atoms: _292  and  _293
REMARK  124  A    between atoms: _303  and  _304
REMARK  125  A    between atoms: _309  and  _311
REMARK  126  A    between atoms: _311  and  _312
REMARK  127  A    between atoms: _311  and  _314
REMARK  128  A    between atoms: _314  and  _315
REMARK  129  A    between atoms: _318  and  _320
REMARK  130  A    between atoms: _320  and  _321
REMARK  131  A    between atoms: _320  and  _323
REMARK  132  A    between atoms: _323  and  _324
REMARK  133  A    between atoms: _327  and  _329
REMARK  134  A    between atoms: _329  and  _330
REMARK  135  A    between atoms: _329  and  _332
REMARK  136  A    between atoms: _332  and  _333
REMARK  137  A    between atoms: _336  and  _338
REMARK  138  A    between atoms: _338  and  _339
REMARK  139  A    between atoms: _338  and  _341
REMARK  140  A    between atoms: _341  and  _342
REMARK  141  A    between atoms: _345  and  _347
REMARK  142  A    between atoms: _347  and  _348
REMARK  143  A    between atoms: _347  and  _350
REMARK  144  A    between atoms: _350  and  _351
REMARK  145  A    between atoms: _354  and  _356
REMARK  146  A    between atoms: _356  and  _357
REMARK  147  A    between atoms: _359  and  _361
REMARK  148  A    between atoms: _361  and  _362
REMARK  149  A    between atoms: _365  and  _367
REMARK  150  A    between atoms: _367  and  _368
REMARK  151  A    between atoms: _367  and  _370
REMARK  152  A    between atoms: _370  and  _371
REMARK  153  A    between atoms: _374  and  _376
REMARK  154  A    between atoms: _376  and  _377
REMARK  155  A    between atoms: _376  and  _379
REMARK  156  A    between atoms: _379  and  _380
REMARK  157  A    between atoms: _383  and  _385
REMARK  158  A    between atoms: _385  and  _386
REMARK  159  A    between atoms: _385  and  _388
REMARK  160  A    between atoms: _388  and  _389
REMARK  161  A    between atoms: _392  and  _394
REMARK  162  A    between atoms: _394  and  _395
REMARK  163  A    between atoms: _394  and  _397
REMARK  164  A    between atoms: _400  and  _402
REMARK  165  A    between atoms: _402  and  _403
REMARK  166  A    between atoms: _402  and  _405
REMARK  167  A    between atoms: _405  and  _406
REMARK  168  A    between atoms: _409  and  _411
REMARK  169  A    between atoms: _411  and  _412
REMARK  170  A    between atoms: _414  and  _416
REMARK  171  A    between atoms: _416  and  _417
REMARK  172  A    between atoms: _419  and  _421
REMARK  173  A    between atoms: _421  and  _422
REMARK  174  A    between atoms: _421  and  _424
REMARK  175  A    between atoms: _424  and  _425
REMARK  176  A    between atoms: _428  and  _430
REMARK  177  A    between atoms: _430  and  _431
REMARK  178  A    between atoms: _433  and  _435
REMARK  179  A    between atoms: _435  and  _436
REMARK  180  A    between atoms: _438  and  _440
REMARK  181  A    between atoms: _440  and  _441
REMARK  182  A    between atoms: _440  and  _443
REMARK  183  A    between atoms: _443  and  _444
REMARK  184  A    between atoms: _450  and  _452
REMARK  185  A    between atoms: _452  and  _453
REMARK  186  A    between atoms: _452  and  _455
REMARK  187  A    between atoms: _455  and  _456
REMARK  188  A    between atoms: _459  and  _461
REMARK  189  A    between atoms: _461  and  _462
REMARK  190  A    between atoms: _461  and  _464
REMARK  191  A    between atoms: _464  and  _465
REMARK  192  A    between atoms: _468  and  _470
REMARK  193  A    between atoms: _470  and  _471
REMARK  194  A    between atoms: _470  and  _473
REMARK  195  A    between atoms: _473  and  _474
REMARK  196  A    between atoms: _478  and  _479
REMARK  197  A    between atoms: _484  and  _486
REMARK  198  A    between atoms: _486  and  _487
REMARK  199  A    between atoms: _486  and  _489
REMARK  200  A    between atoms: _492  and  _494
REMARK  201  A    between atoms: _494  and  _495
REMARK  202  A    between atoms: _494  and  _497
REMARK  203  A    between atoms: _497  and  _498
REMARK  204  A    between atoms: _503  and  _505
REMARK  205  A    between atoms: _505  and  _506
REMARK  206  A    between atoms: _505  and  _508
REMARK  207  A    between atoms: _508  and  _509
REMARK  208  A    between atoms: _512  and  _514
REMARK  209  A    between atoms: _514  and  _515
REMARK  210  A    between atoms: _514  and  _517
REMARK  211  A    between atoms: _517  and  _518
REMARK  212  A    between atoms: _521  and  _523
REMARK  213  A    between atoms: _523  and  _524
REMARK  214  A    between atoms: _526  and  _528
REMARK  215  A    between atoms: _528  and  _529
REMARK  216  A    between atoms: _528  and  _531
REMARK  217  A    between atoms: _531  and  _532
REMARK  218  A    between atoms: _532  and  _533
REMARK  219  A    between atoms: _533  and  _534
REMARK                            x       y       z     vdW  Elec       q    Type
REMARK                         _______ _______ _______ _____ _____    ______ ____
ROOT
ATOM      1  O   HOH     1       3.580  12.811  14.643  0.00  0.00    +0.000 OA
ENDROOT
TORSDOF 0
REMARK  Name = ../refined-set-2016/2o4p/2o4p_pocket.pdb
REMARK  219 active torsions:
REMARK  status: ('A' for Active; 'I' for Inactive)
REMARK    1  A    between atoms: _1  and  _3
REMARK    2  A    between atoms: _3  and  _4
REMARK    3  A    between atoms: _3  and  _6
REMARK    4  A    between atoms: _6  and  _7
REMARK    5  A    between atoms: _7  and  _8
REMARK    6  A    between atoms: _8  and  _9
REMARK    7  A    between atoms: _18  and  _20
REMARK    8  A    between atoms: _20  and  _21
REMARK    9  A    between atoms: _20  and  _23
REMARK   10  A    between atoms: _23  and  _24
REMARK   11  A    between atoms: _27  and  _29
REMARK   12  A    between atoms: _29  and  _30
REMARK   13  A    between atoms: _29  and  _32
REMARK   14  A    between atoms: _32  and  _33
REMARK   15  A    between atoms: _36  and  _38
REMARK   16  A    between atoms: _38  and  _39
REMARK   17  A    between atoms: _38  and  _41
REMARK   18  A    between atoms: _41  and  _42
REMARK   19  A    between atoms: _45  and  _47
REMARK   20  A    between atoms: _47  and  _48
REMARK   21  A    between atoms: _47  and  _50
REMARK   22  A    between atoms: _50  and  _51
REMARK   23  A    between atoms: _54  and  _56
REMARK   24  A    between atoms: _56  and  _57
REMARK   25  A    between atoms: _56  and  _59
REMARK   26  A    between atoms: _59  and  _60
REMARK   27  A    between atoms: _63  and  _65
REMARK   28  A    between atoms: _65  and  _66
REMARK   29  A    between atoms: _68  and  _70
REMARK   30  A    between atoms: _70  and  _71
REMARK   31  A    between atoms: _74  and  _76
REMARK   32  A    between atoms: _76  and  _77
REMARK   33  A    between atoms: _76  and  _79
REMARK   34  A    between atoms: _79  and  _80
REMARK   35  A    between atoms: _83  and  _85
REMARK   36  A    between atoms: _85  and  _86
REMARK   37  A    between atoms: _85  and  _88
REMARK   38  A    between atoms: _88  and  _89
REMARK   39  A    between atoms: _92  and  _94
REMARK   40  A    between atoms: _94  and  _95
REMARK   41  A    between atoms: _94  and  _97
REMARK   42  A    between atoms: _97  and  _98
REMARK   43  A    between atoms: _101  and  _103
REMARK   44  A    between atoms: _103  and  _104
REMARK   45  A    between atoms: _103  and  _106
REMARK   46  A    between atoms: _109  and  _111
REMARK   47  A    between atoms: _111  and  _112
REMARK   48  A    between atoms: _111  and  _114
REMARK   49  A    between atoms: _114  and  _115
REMARK   50  A    between atoms: _115  and  _116
REMARK   51  A    between atoms: _116  and  _117
REMARK   52  A    between atoms: _117  and  _118
REMARK   53  A    between atoms: _122  and  _124
REMARK   54  A    between atoms: _124  and  _125
REMARK   55  A    between atoms: _124  and  _127
REMARK   56  A    between atoms: _127  and  _128
REMARK   57  A    between atoms: _128  and  _129
REMARK   58  A    between atoms: _131  and  _133
REMARK   59  A    between atoms: _133  and  _134
REMARK   60  A    between atoms: _133  and  _136
REMARK   61  A    between atoms: _136  and  _137
REMARK   62  A    between atoms: _140  and  _142
REMARK   63  A    between atoms: _142  and  _143
REMARK   64  A    between atoms: _145  and  _147
REMARK   65  A    between atoms: _147  and  _148
REMARK   66  A    between atoms: _150  and  _152
REMARK   67  A    between atoms: _152  and  _153
REMARK   68  A    between atoms: _152  and  _155
REMARK   69  A    between atoms: _155  and  _156
REMARK   70  A    between atoms: _159  and  _161
REMARK   71  A    between atoms: _161  and  _162
REMARK   72  A    between atoms: _164  and  _166
REMARK   73  A    between atoms: _166  and  _167
REMARK   74  A    between atoms: _169  and  _171
REMARK   75  A    between atoms: _171  and  _172
REMARK   76  A    between atoms: _171  and  _174
REMARK   77  A    between atoms: _174  and  _175
REMARK   78  A    between atoms: _181  and  _183
REMARK   79  A    between atoms: _183  and  _184
REMARK   80  A    between atoms: _183  and  _186
REMARK   81  A    between atoms: _186  and  _187
REMARK   82  A    between atoms: _190  and  _192
REMARK   83  A    between atoms: _192  and  _193
REMARK   84  A    between atoms: _192  and  _195
REMARK   85  A    between atoms: _195  and  _196
REMARK   86  A    between atoms: _199  and  _201
REMARK   87  A    between atoms: _201  and  _202
REMARK   88  A    between atoms: _201  and  _204
REMARK   89  A    between atoms: _204  and  _205
REMARK   90  A    between atoms: _209  and  _210
REMARK   91  A    between atoms: _215  and  _217
REMARK   92  A    between atoms: _217  and  _218
REMARK   93  A    between atoms: _217  and  _220
REMARK   94  A    between atoms: _223  and  _225
REMARK   95  A    between atoms: _225  and  _226
REMARK   96  A    between atoms: _225  and  _228
REMARK   97  A    between atoms: _228  and  _229
REMARK   98  A    between atoms: _234  and  _236
REMARK   99  A    between atoms: _236  and  _237
REMARK  100  A    between atoms: _236  and  _239
REMARK  101  A    between atoms: _239  and  _240
REMARK  102  A    between atoms: _243  and  _245
REMARK  103  A    between atoms: _245  and  _246
REMARK  104  A    between atoms: _245  and  _248
REMARK  105  A    between atoms: _248  and  _249
REMARK  106  A    between atoms: _252  and  _254
REMARK  107  A    between atoms: _254  and  _255
REMARK  108  A    between atoms: _257  and  _259
REMARK  109  A    between atoms: _259  and  _260
REMARK  110  A    between atoms: _259  and  _262
REMARK  111  A    between atoms: _262  and  _263
REMARK  112  A    between atoms: _263  and  _264
REMARK  113  A    between atoms: _264  and  _265
REMARK  114  A    between atoms: _274  and  _276
REMARK  115  A    between atoms: _276  and  _277
REMARK  116  A    between atoms: _276  and  _279
REMARK  117  A    between atoms: _279  and  _280
REMARK  118  A    between atoms: _285  and  _287
REMARK  119  A    between atoms: _287  and  _288
REMARK  120  A    between atoms: _287  and  _290
REMARK  121  A    between atoms: _290  and  _291
REMARK  122  A    between atoms: _291  and  _292
REMARK  123  A    between atoms: _292  and  _293
REMARK  124  A    between atoms: _303  and  _304
REMARK  125  A    between atoms: _309  and  _311
REMARK  126  A    between atoms: _311  and  _312
REMARK  127  A    between atoms: _311  and  _314
REMARK  128  A    between atoms: _314  and  _315
REMARK  129  A    between atoms: _318  and  _320
REMARK  130  A    between atoms: _320  and  _321
REMARK  131  A    between atoms: _320  and  _323
REMARK  132  A    between atoms: _323  and  _324
REMARK  133  A    between atoms: _327  and  _329
REMARK  134  A    between atoms: _329  and  _330
REMARK  135  A    between atoms: _329  and  _332
REMARK  136  A    between atoms: _332  and  _333
REMARK  137  A    between atoms: _336  and  _338
REMARK  138  A    between atoms: _338  and  _339
REMARK  139  A    between atoms: _338  and  _341
REMARK  140  A    between atoms: _341  and  _342
REMARK  141  A    between atoms: _345  and  _347
REMARK  142  A    between atoms: _347  and  _348
REMARK  143  A    between atoms: _347  and  _350
REMARK  144  A    between atoms: _350  and  _351
REMARK  145  A    between atoms: _354  and  _356
REMARK  146  A    between atoms: _356  and  _357
REMARK  147  A    between atoms: _359  and  _361
REMARK  148  A    between atoms: _361  and  _362
REMARK  149  A    between atoms: _365  and  _367
REMARK  150  A    between atoms: _367  and  _368
REMARK  151  A    between atoms: _367  and  _370
REMARK  152  A    between atoms: _370  and  _371
REMARK  153  A    between atoms: _374  and  _376
REMARK  154  A    between atoms: _376  and  _377
REMARK  155  A    between atoms: _376  and  _379
REMARK  156  A    between atoms: _379  and  _380
REMARK  157  A    between atoms: _383  and  _385
REMARK  158  A    between atoms: _385  and  _386
REMARK  159  A    between atoms: _385  and  _388
REMARK  160  A    between atoms: _388  and  _389
REMARK  161  A    between atoms: _392  and  _394
REMARK  162  A    between atoms: _394  and  _395
REMARK  163  A    between atoms: _394  and  _397
REMARK  164  A    between atoms: _400  and  _402
REMARK  165  A    between atoms: _402  and  _403
REMARK  166  A    between atoms: _402  and  _405
REMARK  167  A    between atoms: _405  and  _406
REMARK  168  A    between atoms: _409  and  _411
REMARK  169  A    between atoms: _411  and  _412
REMARK  170  A    between atoms: _414  and  _416
REMARK  171  A    between atoms: _416  and  _417
REMARK  172  A    between atoms: _419  and  _421
REMARK  173  A    between atoms: _421  and  _422
REMARK  174  A    between atoms: _421  and  _424
REMARK  175  A    between atoms: _424  and  _425
REMARK  176  A    between atoms: _428  and  _430
REMARK  177  A    between atoms: _430  and  _431
REMARK  178  A    between atoms: _433  and  _435
REMARK  179  A    between atoms: _435  and  _436
REMARK  180  A    between atoms: _438  and  _440
REMARK  181  A    between atoms: _440  and  _441
REMARK  182  A    between atoms: _440  and  _443
REMARK  183  A    between atoms: _443  and  _444
REMARK  184  A    between atoms: _450  and  _452
REMARK  185  A    between atoms: _452  and  _453
REMARK  186  A    between atoms: _452  and  _455
REMARK  187  A    between atoms: _455  and  _456
REMARK  188  A    between atoms: _459  and  _461
REMARK  189  A    between atoms: _461  and  _462
REMARK  190  A    between atoms: _461  and  _464
REMARK  191  A    between atoms: _464  and  _465
REMARK  192  A    between atoms: _468  and  _470
REMARK  193  A    between atoms: _470  and  _471
REMARK  194  A    between atoms: _470  and  _473
REMARK  195  A    between atoms: _473  and  _474
REMARK  196  A    between atoms: _478  and  _479
REMARK  197  A    between atoms: _484  and  _486
REMARK  198  A    between atoms: _486  and  _487
REMARK  199  A    between atoms: _486  and  _489
REMARK  200  A    between atoms: _492  and  _494
REMARK  201  A    between atoms: _494  and  _495
REMARK  202  A    between atoms: _494  and  _497
REMARK  203  A    between atoms: _497  and  _498
REMARK  204  A    between atoms: _503  and  _505
REMARK  205  A    between atoms: _505  and  _506
REMARK  206  A    between atoms: _505  and  _508
REMARK  207  A    between atoms: _508  and  _509
REMARK  208  A    between atoms: _512  and  _514
REMARK  209  A    between atoms: _514  and  _515
REMARK  210  A    between atoms: _514  and  _517
REMARK  211  A    between atoms: _517  and  _518
REMARK  212  A    between atoms: _521  and  _523
REMARK  213  A    between atoms: _523  and  _524
REMARK  214  A    between atoms: _526  and  _528
REMARK  215  A    between atoms: _528  and  _529
REMARK  216  A    between atoms: _528  and  _531
REMARK  217  A    between atoms: _531  and  _532
REMARK  218  A    between atoms: _532  and  _533
REMARK  219  A    between atoms: _533  and  _534
REMARK                            x       y       z     vdW  Elec       q    Type
REMARK                         _______ _______ _______ _____ _____    ______ ____
ROOT
ATOM      1  O   HOH     1       7.234   8.233  12.942  0.00  0.00    +0.000 OA
ENDROOT
TORSDOF 0
REMARK  Name = ../refined-set-2016/2o4p/2o4p_pocket.pdb
REMARK  219 active torsions:
REMARK  status: ('A' for Active; 'I' for Inactive)
REMARK    1  A    between atoms: _1  and  _3
REMARK    2  A    between atoms: _3  and  _4
REMARK    3  A    between atoms: _3  and  _6
REMARK    4  A    between atoms: _6  and  _7
REMARK    5  A    between atoms: _7  and  _8
REMARK    6  A    between atoms: _8  and  _9
REMARK    7  A    between atoms: _18  and  _20
REMARK    8  A    between atoms: _20  and  _21
REMARK    9  A    between atoms: _20  and  _23
REMARK   10  A    between atoms: _23  and  _24
REMARK   11  A    between atoms: _27  and  _29
REMARK   12  A    between atoms: _29  and  _30
REMARK   13  A    between atoms: _29  and  _32
REMARK   14  A    between atoms: _32  and  _33
REMARK   15  A    between atoms: _36  and  _38
REMARK   16  A    between atoms: _38  and  _39
REMARK   17  A    between atoms: _38  and  _41
REMARK   18  A    between atoms: _41  and  _42
REMARK   19  A    between atoms: _45  and  _47
REMARK   20  A    between atoms: _47  and  _48
REMARK   21  A    between atoms: _47  and  _50
REMARK   22  A    between atoms: _50  and  _51
REMARK   23  A    between atoms: _54  and  _56
REMARK   24  A    between atoms: _56  and  _57
REMARK   25  A    between atoms: _56  and  _59
REMARK   26  A    between atoms: _59  and  _60
REMARK   27  A    between atoms: _63  and  _65
REMARK   28  A    between atoms: _65  and  _66
REMARK   29  A    between atoms: _68  and  _70
REMARK   30  A    between atoms: _70  and  _71
REMARK   31  A    between atoms: _74  and  _76
REMARK   32  A    between atoms: _76  and  _77
REMARK   33  A    between atoms: _76  and  _79
REMARK   34  A    between atoms: _79  and  _80
REMARK   35  A    between atoms: _83  and  _85
REMARK   36  A    between atoms: _85  and  _86
REMARK   37  A    between atoms: _85  and  _88
REMARK   38  A    between atoms: _88  and  _89
REMARK   39  A    between atoms: _92  and  _94
REMARK   40  A    between atoms: _94  and  _95
REMARK   41  A    between atoms: _94  and  _97
REMARK   42  A    between atoms: _97  and  _98
REMARK   43  A    between atoms: _101  and  _103
REMARK   44  A    between atoms: _103  and  _104
REMARK   45  A    between atoms: _103  and  _106
REMARK   46  A    between atoms: _109  and  _111
REMARK   47  A    between atoms: _111  and  _112
REMARK   48  A    between atoms: _111  and  _114
REMARK   49  A    between atoms: _114  and  _115
REMARK   50  A    between atoms: _115  and  _116
REMARK   51  A    between atoms: _116  and  _117
REMARK   52  A    between atoms: _117  and  _118
REMARK   53  A    between atoms: _122  and  _124
REMARK   54  A    between atoms: _124  and  _125
REMARK   55  A    between atoms: _124  and  _127
REMARK   56  A    between atoms: _127  and  _128
REMARK   57  A    between atoms: _128  and  _129
REMARK   58  A    between atoms: _131  and  _133
REMARK   59  A    between atoms: _133  and  _134
REMARK   60  A    between atoms: _133  and  _136
REMARK   61  A    between atoms: _136  and  _137
REMARK   62  A    between atoms: _140  and  _142
REMARK   63  A    between atoms: _142  and  _143
REMARK   64  A    between atoms: _145  and  _147
REMARK   65  A    between atoms: _147  and  _148
REMARK   66  A    between atoms: _150  and  _152
REMARK   67  A    between atoms: _152  and  _153
REMARK   68  A    between atoms: _152  and  _155
REMARK   69  A    between atoms: _155  and  _156
REMARK   70  A    between atoms: _159  and  _161
REMARK   71  A    between atoms: _161  and  _162
REMARK   72  A    between atoms: _164  and  _166
REMARK   73  A    between atoms: _166  and  _167
REMARK   74  A    between atoms: _169  and  _171
REMARK   75  A    between atoms: _171  and  _172
REMARK   76  A    between atoms: _171  and  _174
REMARK   77  A    between atoms: _174  and  _175
REMARK   78  A    between atoms: _181  and  _183
REMARK   79  A    between atoms: _183  and  _184
REMARK   80  A    between atoms: _183  and  _186
REMARK   81  A    between atoms: _186  and  _187
REMARK   82  A    between atoms: _190  and  _192
REMARK   83  A    between atoms: _192  and  _193
REMARK   84  A    between atoms: _192  and  _195
REMARK   85  A    between atoms: _195  and  _196
REMARK   86  A    between atoms: _199  and  _201
REMARK   87  A    between atoms: _201  and  _202
REMARK   88  A    between atoms: _201  and  _204
REMARK   89  A    between atoms: _204  and  _205
REMARK   90  A    between atoms: _209  and  _210
REMARK   91  A    between atoms: _215  and  _217
REMARK   92  A    between atoms: _217  and  _218
REMARK   93  A    between atoms: _217  and  _220
REMARK   94  A    between atoms: _223  and  _225
REMARK   95  A    between atoms: _225  and  _226
REMARK   96  A    between atoms: _225  and  _228
REMARK   97  A    between atoms: _228  and  _229
REMARK   98  A    between atoms: _234  and  _236
REMARK   99  A    between atoms: _236  and  _237
REMARK  100  A    between atoms: _236  and  _239
REMARK  101  A    between atoms: _239  and  _240
REMARK  102  A    between atoms: _243  and  _245
REMARK  103  A    between atoms: _245  and  _246
REMARK  104  A    between atoms: _245  and  _248
REMARK  105  A    between atoms: _248  and  _249
REMARK  106  A    between atoms: _252  and  _254
REMARK  107  A    between atoms: _254  and  _255
REMARK  108  A    between atoms: _257  and  _259
REMARK  109  A    between atoms: _259  and  _260
REMARK  110  A    between atoms: _259  and  _262
REMARK  111  A    between atoms: _262  and  _263
REMARK  112  A    between atoms: _263  and  _264
REMARK  113  A    between atoms: _264  and  _265
REMARK  114  A    between atoms: _274  and  _276
REMARK  115  A    between atoms: _276  and  _277
REMARK  116  A    between atoms: _276  and  _279
REMARK  117  A    between atoms: _279  and  _280
REMARK  118  A    between atoms: _285  and  _287
REMARK  119  A    between atoms: _287  and  _288
REMARK  120  A    between atoms: _287  and  _290
REMARK  121  A    between atoms: _290  and  _291
REMARK  122  A    between atoms: _291  and  _292
REMARK  123  A    between atoms: _292  and  _293
REMARK  124  A    between atoms: _303  and  _304
REMARK  125  A    between atoms: _309  and  _311
REMARK  126  A    between atoms: _311  and  _312
REMARK  127  A    between atoms: _311  and  _314
REMARK  128  A    between atoms: _314  and  _315
REMARK  129  A    between atoms: _318  and  _320
REMARK  130  A    between atoms: _320  and  _321
REMARK  131  A    between atoms: _320  and  _323
REMARK  132  A    between atoms: _323  and  _324
REMARK  133  A    between atoms: _327  and  _329
REMARK  134  A    between atoms: _329  and  _330
REMARK  135  A    between atoms: _329  and  _332
REMARK  136  A    between atoms: _332  and  _333
REMARK  137  A    between atoms: _336  and  _338
REMARK  138  A    between atoms: _338  and  _339
REMARK  139  A    between atoms: _338  and  _341
REMARK  140  A    between atoms: _341  and  _342
REMARK  141  A    between atoms: _345  and  _347
REMARK  142  A    between atoms: _347  and  _348
REMARK  143  A    between atoms: _347  and  _350
REMARK  144  A    between atoms: _350  and  _351
REMARK  145  A    between atoms: _354  and  _356
REMARK  146  A    between atoms: _356  and  _357
REMARK  147  A    between atoms: _359  and  _361
REMARK  148  A    between atoms: _361  and  _362
REMARK  149  A    between atoms: _365  and  _367
REMARK  150  A    between atoms: _367  and  _368
REMARK  151  A    between atoms: _367  and  _370
REMARK  152  A    between atoms: _370  and  _371
REMARK  153  A    between atoms: _374  and  _376
REMARK  154  A    between atoms: _376  and  _377
REMARK  155  A    between atoms: _376  and  _379
REMARK  156  A    between atoms: _379  and  _380
REMARK  157  A    between atoms: _383  and  _385
REMARK  158  A    between atoms: _385  and  _386
REMARK  159  A    between atoms: _385  and  _388
REMARK  160  A    between atoms: _388  and  _389
REMARK  161  A    between atoms: _392  and  _394
REMARK  162  A    between atoms: _394  and  _395
REMARK  163  A    between atoms: _394  and  _397
REMARK  164  A    between atoms: _400  and  _402
REMARK  165  A    between atoms: _402  and  _403
REMARK  166  A    between atoms: _402  and  _405
REMARK  167  A    between atoms: _405  and  _406
REMARK  168  A    between atoms: _409  and  _411
REMARK  169  A    between atoms: _411  and  _412
REMARK  170  A    between atoms: _414  and  _416
REMARK  171  A    between atoms: _416  and  _417
REMARK  172  A    between atoms: _419  and  _421
REMARK  173  A    between atoms: _421  and  _422
REMARK  174  A    between atoms: _421  and  _424
REMARK  175  A    between atoms: _424  and  _425
REMARK  176  A    between atoms: _428  and  _430
REMARK  177  A    between atoms: _430  and  _431
REMARK  178  A    between atoms: _433  and  _435
REMARK  179  A    between atoms: _435  and  _436
REMARK  180  A    between atoms: _438  and  _440
REMARK  181  A    between atoms: _440  and  _441
REMARK  182  A    between atoms: _440  and  _443
REMARK  183  A    between atoms: _443  and  _444
REMARK  184  A    between atoms: _450  and  _452
REMARK  185  A    between atoms: _452  and  _453
REMARK  186  A    between atoms: _452  and  _455
REMARK  187  A    between atoms: _455  and  _456
REMARK  188  A    between atoms: _459  and  _461
REMARK  189  A    between atoms: _461  and  _462
REMARK  190  A    between atoms: _461  and  _464
REMARK  191  A    between atoms: _464  and  _465
REMARK  192  A    between atoms: _468  and  _470
REMARK  193  A    between atoms: _470  and  _471
REMARK  194  A    between atoms: _470  and  _473
REMARK  195  A    between atoms: _473  and  _474
REMARK  196  A    between atoms: _478  and  _479
REMARK  197  A    between atoms: _484  and  _486
REMARK  198  A    between atoms: _486  and  _487
REMARK  199  A    between atoms: _486  and  _489
REMARK  200  A    between atoms: _492  and  _494
REMARK  201  A    between atoms: _494  and  _495
REMARK  202  A    between atoms: _494  and  _497
REMARK  203  A    between atoms: _497  and  _498
REMARK  204  A    between atoms: _503  and  _505
REMARK  205  A    between atoms: _505  and  _506
REMARK  206  A    between atoms: _505  and  _508
REMARK  207  A    between atoms: _508  and  _509
REMARK  208  A    between atoms: _512  and  _514
REMARK  209  A    between atoms: _514  and  _515
REMARK  210  A    between atoms: _514  and  _517
REMARK  211  A    between atoms: _517  and  _518
REMARK  212  A    between atoms: _521  and  _523
REMARK  213  A    between atoms: _523  and  _524
REMARK  214  A    between atoms: _526  and  _528
REMARK  215  A    between atoms: _528  and  _529
REMARK  216  A    between atoms: _528  and  _531
REMARK  217  A    between atoms: _531  and  _532
REMARK  218  A    between atoms: _532  and  _533
REMARK  219  A    between atoms: _533  and  _534
REMARK                            x       y       z     vdW  Elec       q    Type
REMARK                         _______ _______ _______ _____ _____    ______ ____
ROOT
ATOM      1  O   HOH     1       4.275   8.772  11.928  0.00  0.00    +0.000 OA
ENDROOT
TORSDOF 0
REMARK  Name = ../refined-set-2016/2o4p/2o4p_pocket.pdb
REMARK  219 active torsions:
REMARK  status: ('A' for Active; 'I' for Inactive)
REMARK    1  A    between atoms: _1  and  _3
REMARK    2  A    between atoms: _3  and  _4
REMARK    3  A    between atoms: _3  and  _6
REMARK    4  A    between atoms: _6  and  _7
REMARK    5  A    between atoms: _7  and  _8
REMARK    6  A    between atoms: _8  and  _9
REMARK    7  A    between atoms: _18  and  _20
REMARK    8  A    between atoms: _20  and  _21
REMARK    9  A    between atoms: _20  and  _23
REMARK   10  A    between atoms: _23  and  _24
REMARK   11  A    between atoms: _27  and  _29
REMARK   12  A    between atoms: _29  and  _30
REMARK   13  A    between atoms: _29  and  _32
REMARK   14  A    between atoms: _32  and  _33
REMARK   15  A    between atoms: _36  and  _38
REMARK   16  A    between atoms: _38  and  _39
REMARK   17  A    between atoms: _38  and  _41
REMARK   18  A    between atoms: _41  and  _42
REMARK   19  A    between atoms: _45  and  _47
REMARK   20  A    between atoms: _47  and  _48
REMARK   21  A    between atoms: _47  and  _50
REMARK   22  A    between atoms: _50  and  _51
REMARK   23  A    between atoms: _54  and  _56
REMARK   24  A    between atoms: _56  and  _57
REMARK   25  A    between atoms: _56  and  _59
REMARK   26  A    between atoms: _59  and  _60
REMARK   27  A    between atoms: _63  and  _65
REMARK   28  A    between atoms: _65  and  _66
REMARK   29  A    between atoms: _68  and  _70
REMARK   30  A    between atoms: _70  and  _71
REMARK   31  A    between atoms: _74  and  _76
REMARK   32  A    between atoms: _76  and  _77
REMARK   33  A    between atoms: _76  and  _79
REMARK   34  A    between atoms: _79  and  _80
REMARK   35  A    between atoms: _83  and  _85
REMARK   36  A    between atoms: _85  and  _86
REMARK   37  A    between atoms: _85  and  _88
REMARK   38  A    between atoms: _88  and  _89
REMARK   39  A    between atoms: _92  and  _94
REMARK   40  A    between atoms: _94  and  _95
REMARK   41  A    between atoms: _94  and  _97
REMARK   42  A    between atoms: _97  and  _98
REMARK   43  A    between atoms: _101  and  _103
REMARK   44  A    between atoms: _103  and  _104
REMARK   45  A    between atoms: _103  and  _106
REMARK   46  A    between atoms: _109  and  _111
REMARK   47  A    between atoms: _111  and  _112
REMARK   48  A    between atoms: _111  and  _114
REMARK   49  A    between atoms: _114  and  _115
REMARK   50  A    between atoms: _115  and  _116
REMARK   51  A    between atoms: _116  and  _117
REMARK   52  A    between atoms: _117  and  _118
REMARK   53  A    between atoms: _122  and  _124
REMARK   54  A    between atoms: _124  and  _125
REMARK   55  A    between atoms: _124  and  _127
REMARK   56  A    between atoms: _127  and  _128
REMARK   57  A    between atoms: _128  and  _129
REMARK   58  A    between atoms: _131  and  _133
REMARK   59  A    between atoms: _133  and  _134
REMARK   60  A    between atoms: _133  and  _136
REMARK   61  A    between atoms: _136  and  _137
REMARK   62  A    between atoms: _140  and  _142
REMARK   63  A    between atoms: _142  and  _143
REMARK   64  A    between atoms: _145  and  _147
REMARK   65  A    between atoms: _147  and  _148
REMARK   66  A    between atoms: _150  and  _152
REMARK   67  A    between atoms: _152  and  _153
REMARK   68  A    between atoms: _152  and  _155
REMARK   69  A    between atoms: _155  and  _156
REMARK   70  A    between atoms: _159  and  _161
REMARK   71  A    between atoms: _161  and  _162
REMARK   72  A    between atoms: _164  and  _166
REMARK   73  A    between atoms: _166  and  _167
REMARK   74  A    between atoms: _169  and  _171
REMARK   75  A    between atoms: _171  and  _172
REMARK   76  A    between atoms: _171  and  _174
REMARK   77  A    between atoms: _174  and  _175
REMARK   78  A    between atoms: _181  and  _183
REMARK   79  A    between atoms: _183  and  _184
REMARK   80  A    between atoms: _183  and  _186
REMARK   81  A    between atoms: _186  and  _187
REMARK   82  A    between atoms: _190  and  _192
REMARK   83  A    between atoms: _192  and  _193
REMARK   84  A    between atoms: _192  and  _195
REMARK   85  A    between atoms: _195  and  _196
REMARK   86  A    between atoms: _199  and  _201
REMARK   87  A    between atoms: _201  and  _202
REMARK   88  A    between atoms: _201  and  _204
REMARK   89  A    between atoms: _204  and  _205
REMARK   90  A    between atoms: _209  and  _210
REMARK   91  A    between atoms: _215  and  _217
REMARK   92  A    between atoms: _217  and  _218
REMARK   93  A    between atoms: _217  and  _220
REMARK   94  A    between atoms: _223  and  _225
REMARK   95  A    between atoms: _225  and  _226
REMARK   96  A    between atoms: _225  and  _228
REMARK   97  A    between atoms: _228  and  _229
REMARK   98  A    between atoms: _234  and  _236
REMARK   99  A    between atoms: _236  and  _237
REMARK  100  A    between atoms: _236  and  _239
REMARK  101  A    between atoms: _239  and  _240
REMARK  102  A    between atoms: _243  and  _245
REMARK  103  A    between atoms: _245  and  _246
REMARK  104  A    between atoms: _245  and  _248
REMARK  105  A    between atoms: _248  and  _249
REMARK  106  A    between atoms: _252  and  _254
REMARK  107  A    between atoms: _254  and  _255
REMARK  108  A    between atoms: _257  and  _259
REMARK  109  A    between atoms: _259  and  _260
REMARK  110  A    between atoms: _259  and  _262
REMARK  111  A    between atoms: _262  and  _263
REMARK  112  A    between atoms: _263  and  _264
REMARK  113  A    between atoms: _264  and  _265
REMARK  114  A    between atoms: _274  and  _276
REMARK  115  A    between atoms: _276  and  _277
REMARK  116  A    between atoms: _276  and  _279
REMARK  117  A    between atoms: _279  and  _280
REMARK  118  A    between atoms: _285  and  _287
REMARK  119  A    between atoms: _287  and  _288
REMARK  120  A    between atoms: _287  and  _290
REMARK  121  A    between atoms: _290  and  _291
REMARK  122  A    between atoms: _291  and  _292
REMARK  123  A    between atoms: _292  and  _293
REMARK  124  A    between atoms: _303  and  _304
REMARK  125  A    between atoms: _309  and  _311
REMARK  126  A    between atoms: _311  and  _312
REMARK  127  A    between atoms: _311  and  _314
REMARK  128  A    between atoms: _314  and  _315
REMARK  129  A    between atoms: _318  and  _320
REMARK  130  A    between atoms: _320  and  _321
REMARK  131  A    between atoms: _320  and  _323
REMARK  132  A    between atoms: _323  and  _324
REMARK  133  A    between atoms: _327  and  _329
REMARK  134  A    between atoms: _329  and  _330
REMARK  135  A    between atoms: _329  and  _332
REMARK  136  A    between atoms: _332  and  _333
REMARK  137  A    between atoms: _336  and  _338
REMARK  138  A    between atoms: _338  and  _339
REMARK  139  A    between atoms: _338  and  _341
REMARK  140  A    between atoms: _341  and  _342
REMARK  141  A    between atoms: _345  and  _347
REMARK  142  A    between atoms: _347  and  _348
REMARK  143  A    between atoms: _347  and  _350
REMARK  144  A    between atoms: _350  and  _351
REMARK  145  A    between atoms: _354  and  _356
REMARK  146  A    between atoms: _356  and  _357
REMARK  147  A    between atoms: _359  and  _361
REMARK  148  A    between atoms: _361  and  _362
REMARK  149  A    between atoms: _365  and  _367
REMARK  150  A    between atoms: _367  and  _368
REMARK  151  A    between atoms: _367  and  _370
REMARK  152  A    between atoms: _370  and  _371
REMARK  153  A    between atoms: _374  and  _376
REMARK  154  A    between atoms: _376  and  _377
REMARK  155  A    between atoms: _376  and  _379
REMARK  156  A    between atoms: _379  and  _380
REMARK  157  A    between atoms: _383  and  _385
REMARK  158  A    between atoms: _385  and  _386
REMARK  159  A    between atoms: _385  and  _388
REMARK  160  A    between atoms: _388  and  _389
REMARK  161  A    between atoms: _392  and  _394
REMARK  162  A    between atoms: _394  and  _395
REMARK  163  A    between atoms: _394  and  _397
REMARK  164  A    between atoms: _400  and  _402
REMARK  165  A    between atoms: _402  and  _403
REMARK  166  A    between atoms: _402  and  _405
REMARK  167  A    between atoms: _405  and  _406
REMARK  168  A    between atoms: _409  and  _411
REMARK  169  A    between atoms: _411  and  _412
REMARK  170  A    between atoms: _414  and  _416
REMARK  171  A    between atoms: _416  and  _417
REMARK  172  A    between atoms: _419  and  _421
REMARK  173  A    between atoms: _421  and  _422
REMARK  174  A    between atoms: _421  and  _424
REMARK  175  A    between atoms: _424  and  _425
REMARK  176  A    between atoms: _428  and  _430
REMARK  177  A    between atoms: _430  and  _431
REMARK  178  A    between atoms: _433  and  _435
REMARK  179  A    between atoms: _435  and  _436
REMARK  180  A    between atoms: _438  and  _440
REMARK  181  A    between atoms: _440  and  _441
REMARK  182  A    between atoms: _440  and  _443
REMARK  183  A    between atoms: _443  and  _444
REMARK  184  A    between atoms: _450  and  _452
REMARK  185  A    between atoms: _452  and  _453
REMARK  186  A    between atoms: _452  and  _455
REMARK  187  A    between atoms: _455  and  _456
REMARK  188  A    between atoms: _459  and  _461
REMARK  189  A    between atoms: _461  and  _462
REMARK  190  A    between atoms: _461  and  _464
REMARK  191  A    between atoms: _464  and  _465
REMARK  192  A    between atoms: _468  and  _470
REMARK  193  A    between atoms: _470  and  _471
REMARK  194  A    between atoms: _470  and  _473
REMARK  195  A    between atoms: _473  and  _474
REMARK  196  A    between atoms: _478  and  _479
REMARK  197  A    between atoms: _484  and  _486
REMARK  198  A    between atoms: _486  and  _487
REMARK  199  A    between atoms: _486  and  _489
REMARK  200  A    between atoms: _492  and  _494
REMARK  201  A    between atoms: _494  and  _495
REMARK  202  A    between atoms: _494  and  _497
REMARK  203  A    between atoms: _497  and  _498
REMARK  204  A    between atoms: _503  and  _505
REMARK  205  A    between atoms: _505  and  _506
REMARK  206  A    between atoms: _505  and  _508
REMARK  207  A    between atoms: _508  and  _509
REMARK  208  A    between atoms: _512  and  _514
REMARK  209  A    between atoms: _514  and  _515
REMARK  210  A    between atoms: _514  and  _517
REMARK  211  A    between atoms: _517  and  _518
REMARK  212  A    between atoms: _521  and  _523
REMARK  213  A    between atoms: _523  and  _524
REMARK  214  A    between atoms: _526  and  _528
REMARK  215  A    between atoms: _528  and  _529
REMARK  216  A    between atoms: _528  and  _531
REMARK  217  A    between atoms: _531  and  _532
REMARK  218  A    between atoms: _532  and  _533
REMARK  219  A    between atoms: _533  and  _534
REMARK                            x       y       z     vdW  Elec       q    Type
REMARK                         _______ _______ _______ _____ _____    ______ ____
ROOT
ATOM      1  O   HOH     1       0.429  15.776  15.127  0.00  0.00    +0.000 OA
ENDROOT
TORSDOF 0
REMARK  Name = ../refined-set-2016/2o4p/2o4p_pocket.pdb
REMARK  219 active torsions:
REMARK  status: ('A' for Active; 'I' for Inactive)
REMARK    1  A    between atoms: _1  and  _3
REMARK    2  A    between atoms: _3  and  _4
REMARK    3  A    between atoms: _3  and  _6
REMARK    4  A    between atoms: _6  and  _7
REMARK    5  A    between atoms: _7  and  _8
REMARK    6  A    between atoms: _8  and  _9
REMARK    7  A    between atoms: _18  and  _20
REMARK    8  A    between atoms: _20  and  _21
REMARK    9  A    between atoms: _20  and  _23
REMARK   10  A    between atoms: _23  and  _24
REMARK   11  A    between atoms: _27  and  _29
REMARK   12  A    between atoms: _29  and  _30
REMARK   13  A    between atoms: _29  and  _32
REMARK   14  A    between atoms: _32  and  _33
REMARK   15  A    between atoms: _36  and  _38
REMARK   16  A    between atoms: _38  and  _39
REMARK   17  A    between atoms: _38  and  _41
REMARK   18  A    between atoms: _41  and  _42
REMARK   19  A    between atoms: _45  and  _47
REMARK   20  A    between atoms: _47  and  _48
REMARK   21  A    between atoms: _47  and  _50
REMARK   22  A    between atoms: _50  and  _51
REMARK   23  A    between atoms: _54  and  _56
REMARK   24  A    between atoms: _56  and  _57
REMARK   25  A    between atoms: _56  and  _59
REMARK   26  A    between atoms: _59  and  _60
REMARK   27  A    between atoms: _63  and  _65
REMARK   28  A    between atoms: _65  and  _66
REMARK   29  A    between atoms: _68  and  _70
REMARK   30  A    between atoms: _70  and  _71
REMARK   31  A    between atoms: _74  and  _76
REMARK   32  A    between atoms: _76  and  _77
REMARK   33  A    between atoms: _76  and  _79
REMARK   34  A    between atoms: _79  and  _80
REMARK   35  A    between atoms: _83  and  _85
REMARK   36  A    between atoms: _85  and  _86
REMARK   37  A    between atoms: _85  and  _88
REMARK   38  A    between atoms: _88  and  _89
REMARK   39  A    between atoms: _92  and  _94
REMARK   40  A    between atoms: _94  and  _95
REMARK   41  A    between atoms: _94  and  _97
REMARK   42  A    between atoms: _97  and  _98
REMARK   43  A    between atoms: _101  and  _103
REMARK   44  A    between atoms: _103  and  _104
REMARK   45  A    between atoms: _103  and  _106
REMARK   46  A    between atoms: _109  and  _111
REMARK   47  A    between atoms: _111  and  _112
REMARK   48  A    between atoms: _111  and  _114
REMARK   49  A    between atoms: _114  and  _115
REMARK   50  A    between atoms: _115  and  _116
REMARK   51  A    between atoms: _116  and  _117
REMARK   52  A    between atoms: _117  and  _118
REMARK   53  A    between atoms: _122  and  _124
REMARK   54  A    between atoms: _124  and  _125
REMARK   55  A    between atoms: _124  and  _127
REMARK   56  A    between atoms: _127  and  _128
REMARK   57  A    between atoms: _128  and  _129
REMARK   58  A    between atoms: _131  and  _133
REMARK   59  A    between atoms: _133  and  _134
REMARK   60  A    between atoms: _133  and  _136
REMARK   61  A    between atoms: _136  and  _137
REMARK   62  A    between atoms: _140  and  _142
REMARK   63  A    between atoms: _142  and  _143
REMARK   64  A    between atoms: _145  and  _147
REMARK   65  A    between atoms: _147  and  _148
REMARK   66  A    between atoms: _150  and  _152
REMARK   67  A    between atoms: _152  and  _153
REMARK   68  A    between atoms: _152  and  _155
REMARK   69  A    between atoms: _155  and  _156
REMARK   70  A    between atoms: _159  and  _161
REMARK   71  A    between atoms: _161  and  _162
REMARK   72  A    between atoms: _164  and  _166
REMARK   73  A    between atoms: _166  and  _167
REMARK   74  A    between atoms: _169  and  _171
REMARK   75  A    between atoms: _171  and  _172
REMARK   76  A    between atoms: _171  and  _174
REMARK   77  A    between atoms: _174  and  _175
REMARK   78  A    between atoms: _181  and  _183
REMARK   79  A    between atoms: _183  and  _184
REMARK   80  A    between atoms: _183  and  _186
REMARK   81  A    between atoms: _186  and  _187
REMARK   82  A    between atoms: _190  and  _192
REMARK   83  A    between atoms: _192  and  _193
REMARK   84  A    between atoms: _192  and  _195
REMARK   85  A    between atoms: _195  and  _196
REMARK   86  A    between atoms: _199  and  _201
REMARK   87  A    between atoms: _201  and  _202
REMARK   88  A    between atoms: _201  and  _204
REMARK   89  A    between atoms: _204  and  _205
REMARK   90  A    between atoms: _209  and  _210
REMARK   91  A    between atoms: _215  and  _217
REMARK   92  A    between atoms: _217  and  _218
REMARK   93  A    between atoms: _217  and  _220
REMARK   94  A    between atoms: _223  and  _225
REMARK   95  A    between atoms: _225  and  _226
REMARK   96  A    between atoms: _225  and  _228
REMARK   97  A    between atoms: _228  and  _229
REMARK   98  A    between atoms: _234  and  _236
REMARK   99  A    between atoms: _236  and  _237
REMARK  100  A    between atoms: _236  and  _239
REMARK  101  A    between atoms: _239  and  _240
REMARK  102  A    between atoms: _243  and  _245
REMARK  103  A    between atoms: _245  and  _246
REMARK  104  A    between atoms: _245  and  _248
REMARK  105  A    between atoms: _248  and  _249
REMARK  106  A    between atoms: _252  and  _254
REMARK  107  A    between atoms: _254  and  _255
REMARK  108  A    between atoms: _257  and  _259
REMARK  109  A    between atoms: _259  and  _260
REMARK  110  A    between atoms: _259  and  _262
REMARK  111  A    between atoms: _262  and  _263
REMARK  112  A    between atoms: _263  and  _264
REMARK  113  A    between atoms: _264  and  _265
REMARK  114  A    between atoms: _274  and  _276
REMARK  115  A    between atoms: _276  and  _277
REMARK  116  A    between atoms: _276  and  _279
REMARK  117  A    between atoms: _279  and  _280
REMARK  118  A    between atoms: _285  and  _287
REMARK  119  A    between atoms: _287  and  _288
REMARK  120  A    between atoms: _287  and  _290
REMARK  121  A    between atoms: _290  and  _291
REMARK  122  A    between atoms: _291  and  _292
REMARK  123  A    between atoms: _292  and  _293
REMARK  124  A    between atoms: _303  and  _304
REMARK  125  A    between atoms: _309  and  _311
REMARK  126  A    between atoms: _311  and  _312
REMARK  127  A    between atoms: _311  and  _314
REMARK  128  A    between atoms: _314  and  _315
REMARK  129  A    between atoms: _318  and  _320
REMARK  130  A    between atoms: _320  and  _321
REMARK  131  A    between atoms: _320  and  _323
REMARK  132  A    between atoms: _323  and  _324
REMARK  133  A    between atoms: _327  and  _329
REMARK  134  A    between atoms: _329  and  _330
REMARK  135  A    between atoms: _329  and  _332
REMARK  136  A    between atoms: _332  and  _333
REMARK  137  A    between atoms: _336  and  _338
REMARK  138  A    between atoms: _338  and  _339
REMARK  139  A    between atoms: _338  and  _341
REMARK  140  A    between atoms: _341  and  _342
REMARK  141  A    between atoms: _345  and  _347
REMARK  142  A    between atoms: _347  and  _348
REMARK  143  A    between atoms: _347  and  _350
REMARK  144  A    between atoms: _350  and  _351
REMARK  145  A    between atoms: _354  and  _356
REMARK  146  A    between atoms: _356  and  _357
REMARK  147  A    between atoms: _359  and  _361
REMARK  148  A    between atoms: _361  and  _362
REMARK  149  A    between atoms: _365  and  _367
REMARK  150  A    between atoms: _367  and  _368
REMARK  151  A    between atoms: _367  and  _370
REMARK  152  A    between atoms: _370  and  _371
REMARK  153  A    between atoms: _374  and  _376
REMARK  154  A    between atoms: _376  and  _377
REMARK  155  A    between atoms: _376  and  _379
REMARK  156  A    between atoms: _379  and  _380
REMARK  157  A    between atoms: _383  and  _385
REMARK  158  A    between atoms: _385  and  _386
REMARK  159  A    between atoms: _385  and  _388
REMARK  160  A    between atoms: _388  and  _389
REMARK  161  A    between atoms: _392  and  _394
REMARK  162  A    between atoms: _394  and  _395
REMARK  163  A    between atoms: _394  and  _397
REMARK  164  A    between atoms: _400  and  _402
REMARK  165  A    between atoms: _402  and  _403
REMARK  166  A    between atoms: _402  and  _405
REMARK  167  A    between atoms: _405  and  _406
REMARK  168  A    between atoms: _409  and  _411
REMARK  169  A    between atoms: _411  and  _412
REMARK  170  A    between atoms: _414  and  _416
REMARK  171  A    between atoms: _416  and  _417
REMARK  172  A    between atoms: _419  and  _421
REMARK  173  A    between atoms: _421  and  _422
REMARK  174  A    between atoms: _421  and  _424
REMARK  175  A    between atoms: _424  and  _425
REMARK  176  A    between atoms: _428  and  _430
REMARK  177  A    between atoms: _430  and  _431
REMARK  178  A    between atoms: _433  and  _435
REMARK  179  A    between atoms: _435  and  _436
REMARK  180  A    between atoms: _438  and  _440
REMARK  181  A    between atoms: _440  and  _441
REMARK  182  A    between atoms: _440  and  _443
REMARK  183  A    between atoms: _443  and  _444
REMARK  184  A    between atoms: _450  and  _452
REMARK  185  A    between atoms: _452  and  _453
REMARK  186  A    between atoms: _452  and  _455
REMARK  187  A    between atoms: _455  and  _456
REMARK  188  A    between atoms: _459  and  _461
REMARK  189  A    between atoms: _461  and  _462
REMARK  190  A    between atoms: _461  and  _464
REMARK  191  A    between atoms: _464  and  _465
REMARK  192  A    between atoms: _468  and  _470
REMARK  193  A    between atoms: _470  and  _471
REMARK  194  A    between atoms: _470  and  _473
REMARK  195  A    between atoms: _473  and  _474
REMARK  196  A    between atoms: _478  and  _479
REMARK  197  A    between atoms: _484  and  _486
REMARK  198  A    between atoms: _486  and  _487
REMARK  199  A    between atoms: _486  and  _489
REMARK  200  A    between atoms: _492  and  _494
REMARK  201  A    between atoms: _494  and  _495
REMARK  202  A    between atoms: _494  and  _497
REMARK  203  A    between atoms: _497  and  _498
REMARK  204  A    between atoms: _503  and  _505
REMARK  205  A    between atoms: _505  and  _506
REMARK  206  A    between atoms: _505  and  _508
REMARK  207  A    between atoms: _508  and  _509
REMARK  208  A    between atoms: _512  and  _514
REMARK  209  A    between atoms: _514  and  _515
REMARK  210  A    between atoms: _514  and  _517
REMARK  211  A    between atoms: _517  and  _518
REMARK  212  A    between atoms: _521  and  _523
REMARK  213  A    between atoms: _523  and  _524
REMARK  214  A    between atoms: _526  and  _528
REMARK  215  A    between atoms: _528  and  _529
REMARK  216  A    between atoms: _528  and  _531
REMARK  217  A    between atoms: _531  and  _532
REMARK  218  A    between atoms: _532  and  _533
REMARK  219  A    between atoms: _533  and  _534
REMARK                            x       y       z     vdW  Elec       q    Type
REMARK                         _______ _______ _______ _____ _____    ______ ____
ROOT
ATOM      1  O   HOH     1       2.474  18.321  18.721  0.00  0.00    +0.000 OA
ENDROOT
TORSDOF 0
REMARK  Name = ../refined-set-2016/2o4p/2o4p_pocket.pdb
REMARK  219 active torsions:
REMARK  status: ('A' for Active; 'I' for Inactive)
REMARK    1  A    between atoms: _1  and  _3
REMARK    2  A    between atoms: _3  and  _4
REMARK    3  A    between atoms: _3  and  _6
REMARK    4  A    between atoms: _6  and  _7
REMARK    5  A    between atoms: _7  and  _8
REMARK    6  A    between atoms: _8  and  _9
REMARK    7  A    between atoms: _18  and  _20
REMARK    8  A    between atoms: _20  and  _21
REMARK    9  A    between atoms: _20  and  _23
REMARK   10  A    between atoms: _23  and  _24
REMARK   11  A    between atoms: _27  and  _29
REMARK   12  A    between atoms: _29  and  _30
REMARK   13  A    between atoms: _29  and  _32
REMARK   14  A    between atoms: _32  and  _33
REMARK   15  A    between atoms: _36  and  _38
REMARK   16  A    between atoms: _38  and  _39
REMARK   17  A    between atoms: _38  and  _41
REMARK   18  A    between atoms: _41  and  _42
REMARK   19  A    between atoms: _45  and  _47
REMARK   20  A    between atoms: _47  and  _48
REMARK   21  A    between atoms: _47  and  _50
REMARK   22  A    between atoms: _50  and  _51
REMARK   23  A    between atoms: _54  and  _56
REMARK   24  A    between atoms: _56  and  _57
REMARK   25  A    between atoms: _56  and  _59
REMARK   26  A    between atoms: _59  and  _60
REMARK   27  A    between atoms: _63  and  _65
REMARK   28  A    between atoms: _65  and  _66
REMARK   29  A    between atoms: _68  and  _70
REMARK   30  A    between atoms: _70  and  _71
REMARK   31  A    between atoms: _74  and  _76
REMARK   32  A    between atoms: _76  and  _77
REMARK   33  A    between atoms: _76  and  _79
REMARK   34  A    between atoms: _79  and  _80
REMARK   35  A    between atoms: _83  and  _85
REMARK   36  A    between atoms: _85  and  _86
REMARK   37  A    between atoms: _85  and  _88
REMARK   38  A    between atoms: _88  and  _89
REMARK   39  A    between atoms: _92  and  _94
REMARK   40  A    between atoms: _94  and  _95
REMARK   41  A    between atoms: _94  and  _97
REMARK   42  A    between atoms: _97  and  _98
REMARK   43  A    between atoms: _101  and  _103
REMARK   44  A    between atoms: _103  and  _104
REMARK   45  A    between atoms: _103  and  _106
REMARK   46  A    between atoms: _109  and  _111
REMARK   47  A    between atoms: _111  and  _112
REMARK   48  A    between atoms: _111  and  _114
REMARK   49  A    between atoms: _114  and  _115
REMARK   50  A    between atoms: _115  and  _116
REMARK   51  A    between atoms: _116  and  _117
REMARK   52  A    between atoms: _117  and  _118
REMARK   53  A    between atoms: _122  and  _124
REMARK   54  A    between atoms: _124  and  _125
REMARK   55  A    between atoms: _124  and  _127
REMARK   56  A    between atoms: _127  and  _128
REMARK   57  A    between atoms: _128  and  _129
REMARK   58  A    between atoms: _131  and  _133
REMARK   59  A    between atoms: _133  and  _134
REMARK   60  A    between atoms: _133  and  _136
REMARK   61  A    between atoms: _136  and  _137
REMARK   62  A    between atoms: _140  and  _142
REMARK   63  A    between atoms: _142  and  _143
REMARK   64  A    between atoms: _145  and  _147
REMARK   65  A    between atoms: _147  and  _148
REMARK   66  A    between atoms: _150  and  _152
REMARK   67  A    between atoms: _152  and  _153
REMARK   68  A    between atoms: _152  and  _155
REMARK   69  A    between atoms: _155  and  _156
REMARK   70  A    between atoms: _159  and  _161
REMARK   71  A    between atoms: _161  and  _162
REMARK   72  A    between atoms: _164  and  _166
REMARK   73  A    between atoms: _166  and  _167
REMARK   74  A    between atoms: _169  and  _171
REMARK   75  A    between atoms: _171  and  _172
REMARK   76  A    between atoms: _171  and  _174
REMARK   77  A    between atoms: _174  and  _175
REMARK   78  A    between atoms: _181  and  _183
REMARK   79  A    between atoms: _183  and  _184
REMARK   80  A    between atoms: _183  and  _186
REMARK   81  A    between atoms: _186  and  _187
REMARK   82  A    between atoms: _190  and  _192
REMARK   83  A    between atoms: _192  and  _193
REMARK   84  A    between atoms: _192  and  _195
REMARK   85  A    between atoms: _195  and  _196
REMARK   86  A    between atoms: _199  and  _201
REMARK   87  A    between atoms: _201  and  _202
REMARK   88  A    between atoms: _201  and  _204
REMARK   89  A    between atoms: _204  and  _205
REMARK   90  A    between atoms: _209  and  _210
REMARK   91  A    between atoms: _215  and  _217
REMARK   92  A    between atoms: _217  and  _218
REMARK   93  A    between atoms: _217  and  _220
REMARK   94  A    between atoms: _223  and  _225
REMARK   95  A    between atoms: _225  and  _226
REMARK   96  A    between atoms: _225  and  _228
REMARK   97  A    between atoms: _228  and  _229
REMARK   98  A    between atoms: _234  and  _236
REMARK   99  A    between atoms: _236  and  _237
REMARK  100  A    between atoms: _236  and  _239
REMARK  101  A    between atoms: _239  and  _240
REMARK  102  A    between atoms: _243  and  _245
REMARK  103  A    between atoms: _245  and  _246
REMARK  104  A    between atoms: _245  and  _248
REMARK  105  A    between atoms: _248  and  _249
REMARK  106  A    between atoms: _252  and  _254
REMARK  107  A    between atoms: _254  and  _255
REMARK  108  A    between atoms: _257  and  _259
REMARK  109  A    between atoms: _259  and  _260
REMARK  110  A    between atoms: _259  and  _262
REMARK  111  A    between atoms: _262  and  _263
REMARK  112  A    between atoms: _263  and  _264
REMARK  113  A    between atoms: _264  and  _265
REMARK  114  A    between atoms: _274  and  _276
REMARK  115  A    between atoms: _276  and  _277
REMARK  116  A    between atoms: _276  and  _279
REMARK  117  A    between atoms: _279  and  _280
REMARK  118  A    between atoms: _285  and  _287
REMARK  119  A    between atoms: _287  and  _288
REMARK  120  A    between atoms: _287  and  _290
REMARK  121  A    between atoms: _290  and  _291
REMARK  122  A    between atoms: _291  and  _292
REMARK  123  A    between atoms: _292  and  _293
REMARK  124  A    between atoms: _303  and  _304
REMARK  125  A    between atoms: _309  and  _311
REMARK  126  A    between atoms: _311  and  _312
REMARK  127  A    between atoms: _311  and  _314
REMARK  128  A    between atoms: _314  and  _315
REMARK  129  A    between atoms: _318  and  _320
REMARK  130  A    between atoms: _320  and  _321
REMARK  131  A    between atoms: _320  and  _323
REMARK  132  A    between atoms: _323  and  _324
REMARK  133  A    between atoms: _327  and  _329
REMARK  134  A    between atoms: _329  and  _330
REMARK  135  A    between atoms: _329  and  _332
REMARK  136  A    between atoms: _332  and  _333
REMARK  137  A    between atoms: _336  and  _338
REMARK  138  A    between atoms: _338  and  _339
REMARK  139  A    between atoms: _338  and  _341
REMARK  140  A    between atoms: _341  and  _342
REMARK  141  A    between atoms: _345  and  _347
REMARK  142  A    between atoms: _347  and  _348
REMARK  143  A    between atoms: _347  and  _350
REMARK  144  A    between atoms: _350  and  _351
REMARK  145  A    between atoms: _354  and  _356
REMARK  146  A    between atoms: _356  and  _357
REMARK  147  A    between atoms: _359  and  _361
REMARK  148  A    between atoms: _361  and  _362
REMARK  149  A    between atoms: _365  and  _367
REMARK  150  A    between atoms: _367  and  _368
REMARK  151  A    between atoms: _367  and  _370
REMARK  152  A    between atoms: _370  and  _371
REMARK  153  A    between atoms: _374  and  _376
REMARK  154  A    between atoms: _376  and  _377
REMARK  155  A    between atoms: _376  and  _379
REMARK  156  A    between atoms: _379  and  _380
REMARK  157  A    between atoms: _383  and  _385
REMARK  158  A    between atoms: _385  and  _386
REMARK  159  A    between atoms: _385  and  _388
REMARK  160  A    between atoms: _388  and  _389
REMARK  161  A    between atoms: _392  and  _394
REMARK  162  A    between atoms: _394  and  _395
REMARK  163  A    between atoms: _394  and  _397
REMARK  164  A    between atoms: _400  and  _402
REMARK  165  A    between atoms: _402  and  _403
REMARK  166  A    between atoms: _402  and  _405
REMARK  167  A    between atoms: _405  and  _406
REMARK  168  A    between atoms: _409  and  _411
REMARK  169  A    between atoms: _411  and  _412
REMARK  170  A    between atoms: _414  and  _416
REMARK  171  A    between atoms: _416  and  _417
REMARK  172  A    between atoms: _419  and  _421
REMARK  173  A    between atoms: _421  and  _422
REMARK  174  A    between atoms: _421  and  _424
REMARK  175  A    between atoms: _424  and  _425
REMARK  176  A    between atoms: _428  and  _430
REMARK  177  A    between atoms: _430  and  _431
REMARK  178  A    between atoms: _433  and  _435
REMARK  179  A    between atoms: _435  and  _436
REMARK  180  A    between atoms: _438  and  _440
REMARK  181  A    between atoms: _440  and  _441
REMARK  182  A    between atoms: _440  and  _443
REMARK  183  A    between atoms: _443  and  _444
REMARK  184  A    between atoms: _450  and  _452
REMARK  185  A    between atoms: _452  and  _453
REMARK  186  A    between atoms: _452  and  _455
REMARK  187  A    between atoms: _455  and  _456
REMARK  188  A    between atoms: _459  and  _461
REMARK  189  A    between atoms: _461  and  _462
REMARK  190  A    between atoms: _461  and  _464
REMARK  191  A    between atoms: _464  and  _465
REMARK  192  A    between atoms: _468  and  _470
REMARK  193  A    between atoms: _470  and  _471
REMARK  194  A    between atoms: _470  and  _473
REMARK  195  A    between atoms: _473  and  _474
REMARK  196  A    between atoms: _478  and  _479
REMARK  197  A    between atoms: _484  and  _486
REMARK  198  A    between atoms: _486  and  _487
REMARK  199  A    between atoms: _486  and  _489
REMARK  200  A    between atoms: _492  and  _494
REMARK  201  A    between atoms: _494  and  _495
REMARK  202  A    between atoms: _494  and  _497
REMARK  203  A    between atoms: _497  and  _498
REMARK  204  A    between atoms: _503  and  _505
REMARK  205  A    between atoms: _505  and  _506
REMARK  206  A    between atoms: _505  and  _508
REMARK  207  A    between atoms: _508  and  _509
REMARK  208  A    between atoms: _512  and  _514
REMARK  209  A    between atoms: _514  and  _515
REMARK  210  A    between atoms: _514  and  _517
REMARK  211  A    between atoms: _517  and  _518
REMARK  212  A    between atoms: _521  and  _523
REMARK  213  A    between atoms: _523  and  _524
REMARK  214  A    between atoms: _526  and  _528
REMARK  215  A    between atoms: _528  and  _529
REMARK  216  A    between atoms: _528  and  _531
REMARK  217  A    between atoms: _531  and  _532
REMARK  218  A    between atoms: _532  and  _533
REMARK  219  A    between atoms: _533  and  _534
REMARK                            x       y       z     vdW  Elec       q    Type
REMARK                         _______ _______ _______ _____ _____    ______ ____
ROOT
ATOM      1  O   HOH     1       3.774  12.975  17.053  0.00  0.00    +0.000 OA
ENDROOT
TORSDOF 0
REMARK  Name = ../refined-set-2016/2o4p/2o4p_pocket.pdb
REMARK  219 active torsions:
REMARK  status: ('A' for Active; 'I' for Inactive)
REMARK    1  A    between atoms: _1  and  _3
REMARK    2  A    between atoms: _3  and  _4
REMARK    3  A    between atoms: _3  and  _6
REMARK    4  A    between atoms: _6  and  _7
REMARK    5  A    between atoms: _7  and  _8
REMARK    6  A    between atoms: _8  and  _9
REMARK    7  A    between atoms: _18  and  _20
REMARK    8  A    between atoms: _20  and  _21
REMARK    9  A    between atoms: _20  and  _23
REMARK   10  A    between atoms: _23  and  _24
REMARK   11  A    between atoms: _27  and  _29
REMARK   12  A    between atoms: _29  and  _30
REMARK   13  A    between atoms: _29  and  _32
REMARK   14  A    between atoms: _32  and  _33
REMARK   15  A    between atoms: _36  and  _38
REMARK   16  A    between atoms: _38  and  _39
REMARK   17  A    between atoms: _38  and  _41
REMARK   18  A    between atoms: _41  and  _42
REMARK   19  A    between atoms: _45  and  _47
REMARK   20  A    between atoms: _47  and  _48
REMARK   21  A    between atoms: _47  and  _50
REMARK   22  A    between atoms: _50  and  _51
REMARK   23  A    between atoms: _54  and  _56
REMARK   24  A    between atoms: _56  and  _57
REMARK   25  A    between atoms: _56  and  _59
REMARK   26  A    between atoms: _59  and  _60
REMARK   27  A    between atoms: _63  and  _65
REMARK   28  A    between atoms: _65  and  _66
REMARK   29  A    between atoms: _68  and  _70
REMARK   30  A    between atoms: _70  and  _71
REMARK   31  A    between atoms: _74  and  _76
REMARK   32  A    between atoms: _76  and  _77
REMARK   33  A    between atoms: _76  and  _79
REMARK   34  A    between atoms: _79  and  _80
REMARK   35  A    between atoms: _83  and  _85
REMARK   36  A    between atoms: _85  and  _86
REMARK   37  A    between atoms: _85  and  _88
REMARK   38  A    between atoms: _88  and  _89
REMARK   39  A    between atoms: _92  and  _94
REMARK   40  A    between atoms: _94  and  _95
REMARK   41  A    between atoms: _94  and  _97
REMARK   42  A    between atoms: _97  and  _98
REMARK   43  A    between atoms: _101  and  _103
REMARK   44  A    between atoms: _103  and  _104
REMARK   45  A    between atoms: _103  and  _106
REMARK   46  A    between atoms: _109  and  _111
REMARK   47  A    between atoms: _111  and  _112
REMARK   48  A    between atoms: _111  and  _114
REMARK   49  A    between atoms: _114  and  _115
REMARK   50  A    between atoms: _115  and  _116
REMARK   51  A    between atoms: _116  and  _117
REMARK   52  A    between atoms: _117  and  _118
REMARK   53  A    between atoms: _122  and  _124
REMARK   54  A    between atoms: _124  and  _125
REMARK   55  A    between atoms: _124  and  _127
REMARK   56  A    between atoms: _127  and  _128
REMARK   57  A    between atoms: _128  and  _129
REMARK   58  A    between atoms: _131  and  _133
REMARK   59  A    between atoms: _133  and  _134
REMARK   60  A    between atoms: _133  and  _136
REMARK   61  A    between atoms: _136  and  _137
REMARK   62  A    between atoms: _140  and  _142
REMARK   63  A    between atoms: _142  and  _143
REMARK   64  A    between atoms: _145  and  _147
REMARK   65  A    between atoms: _147  and  _148
REMARK   66  A    between atoms: _150  and  _152
REMARK   67  A    between atoms: _152  and  _153
REMARK   68  A    between atoms: _152  and  _155
REMARK   69  A    between atoms: _155  and  _156
REMARK   70  A    between atoms: _159  and  _161
REMARK   71  A    between atoms: _161  and  _162
REMARK   72  A    between atoms: _164  and  _166
REMARK   73  A    between atoms: _166  and  _167
REMARK   74  A    between atoms: _169  and  _171
REMARK   75  A    between atoms: _171  and  _172
REMARK   76  A    between atoms: _171  and  _174
REMARK   77  A    between atoms: _174  and  _175
REMARK   78  A    between atoms: _181  and  _183
REMARK   79  A    between atoms: _183  and  _184
REMARK   80  A    between atoms: _183  and  _186
REMARK   81  A    between atoms: _186  and  _187
REMARK   82  A    between atoms: _190  and  _192
REMARK   83  A    between atoms: _192  and  _193
REMARK   84  A    between atoms: _192  and  _195
REMARK   85  A    between atoms: _195  and  _196
REMARK   86  A    between atoms: _199  and  _201
REMARK   87  A    between atoms: _201  and  _202
REMARK   88  A    between atoms: _201  and  _204
REMARK   89  A    between atoms: _204  and  _205
REMARK   90  A    between atoms: _209  and  _210
REMARK   91  A    between atoms: _215  and  _217
REMARK   92  A    between atoms: _217  and  _218
REMARK   93  A    between atoms: _217  and  _220
REMARK   94  A    between atoms: _223  and  _225
REMARK   95  A    between atoms: _225  and  _226
REMARK   96  A    between atoms: _225  and  _228
REMARK   97  A    between atoms: _228  and  _229
REMARK   98  A    between atoms: _234  and  _236
REMARK   99  A    between atoms: _236  and  _237
REMARK  100  A    between atoms: _236  and  _239
REMARK  101  A    between atoms: _239  and  _240
REMARK  102  A    between atoms: _243  and  _245
REMARK  103  A    between atoms: _245  and  _246
REMARK  104  A    between atoms: _245  and  _248
REMARK  105  A    between atoms: _248  and  _249
REMARK  106  A    between atoms: _252  and  _254
REMARK  107  A    between atoms: _254  and  _255
REMARK  108  A    between atoms: _257  and  _259
REMARK  109  A    between atoms: _259  and  _260
REMARK  110  A    between atoms: _259  and  _262
REMARK  111  A    between atoms: _262  and  _263
REMARK  112  A    between atoms: _263  and  _264
REMARK  113  A    between atoms: _264  and  _265
REMARK  114  A    between atoms: _274  and  _276
REMARK  115  A    between atoms: _276  and  _277
REMARK  116  A    between atoms: _276  and  _279
REMARK  117  A    between atoms: _279  and  _280
REMARK  118  A    between atoms: _285  and  _287
REMARK  119  A    between atoms: _287  and  _288
REMARK  120  A    between atoms: _287  and  _290
REMARK  121  A    between atoms: _290  and  _291
REMARK  122  A    between atoms: _291  and  _292
REMARK  123  A    between atoms: _292  and  _293
REMARK  124  A    between atoms: _303  and  _304
REMARK  125  A    between atoms: _309  and  _311
REMARK  126  A    between atoms: _311  and  _312
REMARK  127  A    between atoms: _311  and  _314
REMARK  128  A    between atoms: _314  and  _315
REMARK  129  A    between atoms: _318  and  _320
REMARK  130  A    between atoms: _320  and  _321
REMARK  131  A    between atoms: _320  and  _323
REMARK  132  A    between atoms: _323  and  _324
REMARK  133  A    between atoms: _327  and  _329
REMARK  134  A    between atoms: _329  and  _330
REMARK  135  A    between atoms: _329  and  _332
REMARK  136  A    between atoms: _332  and  _333
REMARK  137  A    between atoms: _336  and  _338
REMARK  138  A    between atoms: _338  and  _339
REMARK  139  A    between atoms: _338  and  _341
REMARK  140  A    between atoms: _341  and  _342
REMARK  141  A    between atoms: _345  and  _347
REMARK  142  A    between atoms: _347  and  _348
REMARK  143  A    between atoms: _347  and  _350
REMARK  144  A    between atoms: _350  and  _351
REMARK  145  A    between atoms: _354  and  _356
REMARK  146  A    between atoms: _356  and  _357
REMARK  147  A    between atoms: _359  and  _361
REMARK  148  A    between atoms: _361  and  _362
REMARK  149  A    between atoms: _365  and  _367
REMARK  150  A    between atoms: _367  and  _368
REMARK  151  A    between atoms: _367  and  _370
REMARK  152  A    between atoms: _370  and  _371
REMARK  153  A    between atoms: _374  and  _376
REMARK  154  A    between atoms: _376  and  _377
REMARK  155  A    between atoms: _376  and  _379
REMARK  156  A    between atoms: _379  and  _380
REMARK  157  A    between atoms: _383  and  _385
REMARK  158  A    between atoms: _385  and  _386
REMARK  159  A    between atoms: _385  and  _388
REMARK  160  A    between atoms: _388  and  _389
REMARK  161  A    between atoms: _392  and  _394
REMARK  162  A    between atoms: _394  and  _395
REMARK  163  A    between atoms: _394  and  _397
REMARK  164  A    between atoms: _400  and  _402
REMARK  165  A    between atoms: _402  and  _403
REMARK  166  A    between atoms: _402  and  _405
REMARK  167  A    between atoms: _405  and  _406
REMARK  168  A    between atoms: _409  and  _411
REMARK  169  A    between atoms: _411  and  _412
REMARK  170  A    between atoms: _414  and  _416
REMARK  171  A    between atoms: _416  and  _417
REMARK  172  A    between atoms: _419  and  _421
REMARK  173  A    between atoms: _421  and  _422
REMARK  174  A    between atoms: _421  and  _424
REMARK  175  A    between atoms: _424  and  _425
REMARK  176  A    between atoms: _428  and  _430
REMARK  177  A    between atoms: _430  and  _431
REMARK  178  A    between atoms: _433  and  _435
REMARK  179  A    between atoms: _435  and  _436
REMARK  180  A    between atoms: _438  and  _440
REMARK  181  A    between atoms: _440  and  _441
REMARK  182  A    between atoms: _440  and  _443
REMARK  183  A    between atoms: _443  and  _444
REMARK  184  A    between atoms: _450  and  _452
REMARK  185  A    between atoms: _452  and  _453
REMARK  186  A    between atoms: _452  and  _455
REMARK  187  A    between atoms: _455  and  _456
REMARK  188  A    between atoms: _459  and  _461
REMARK  189  A    between atoms: _461  and  _462
REMARK  190  A    between atoms: _461  and  _464
REMARK  191  A    between atoms: _464  and  _465
REMARK  192  A    between atoms: _468  and  _470
REMARK  193  A    between atoms: _470  and  _471
REMARK  194  A    between atoms: _470  and  _473
REMARK  195  A    between atoms: _473  and  _474
REMARK  196  A    between atoms: _478  and  _479
REMARK  197  A    between atoms: _484  and  _486
REMARK  198  A    between atoms: _486  and  _487
REMARK  199  A    between atoms: _486  and  _489
REMARK  200  A    between atoms: _492  and  _494
REMARK  201  A    between atoms: _494  and  _495
REMARK  202  A    between atoms: _494  and  _497
REMARK  203  A    between atoms: _497  and  _498
REMARK  204  A    between atoms: _503  and  _505
REMARK  205  A    between atoms: _505  and  _506
REMARK  206  A    between atoms: _505  and  _508
REMARK  207  A    between atoms: _508  and  _509
REMARK  208  A    between atoms: _512  and  _514
REMARK  209  A    between atoms: _514  and  _515
REMARK  210  A    between atoms: _514  and  _517
REMARK  211  A    between atoms: _517  and  _518
REMARK  212  A    between atoms: _521  and  _523
REMARK  213  A    between atoms: _523  and  _524
REMARK  214  A    between atoms: _526  and  _528
REMARK  215  A    between atoms: _528  and  _529
REMARK  216  A    between atoms: _528  and  _531
REMARK  217  A    between atoms: _531  and  _532
REMARK  218  A    between atoms: _532  and  _533
REMARK  219  A    between atoms: _533  and  _534
REMARK                            x       y       z     vdW  Elec       q    Type
REMARK                         _______ _______ _______ _____ _____    ______ ____
ROOT
ATOM      1  O   HOH     1       6.048   8.537  24.421  0.00  0.00    +0.000 OA
ENDROOT
TORSDOF 0
REMARK  Name = ../refined-set-2016/2o4p/2o4p_pocket.pdb
REMARK  219 active torsions:
REMARK  status: ('A' for Active; 'I' for Inactive)
REMARK    1  A    between atoms: _1  and  _3
REMARK    2  A    between atoms: _3  and  _4
REMARK    3  A    between atoms: _3  and  _6
REMARK    4  A    between atoms: _6  and  _7
REMARK    5  A    between atoms: _7  and  _8
REMARK    6  A    between atoms: _8  and  _9
REMARK    7  A    between atoms: _18  and  _20
REMARK    8  A    between atoms: _20  and  _21
REMARK    9  A    between atoms: _20  and  _23
REMARK   10  A    between atoms: _23  and  _24
REMARK   11  A    between atoms: _27  and  _29
REMARK   12  A    between atoms: _29  and  _30
REMARK   13  A    between atoms: _29  and  _32
REMARK   14  A    between atoms: _32  and  _33
REMARK   15  A    between atoms: _36  and  _38
REMARK   16  A    between atoms: _38  and  _39
REMARK   17  A    between atoms: _38  and  _41
REMARK   18  A    between atoms: _41  and  _42
REMARK   19  A    between atoms: _45  and  _47
REMARK   20  A    between atoms: _47  and  _48
REMARK   21  A    between atoms: _47  and  _50
REMARK   22  A    between atoms: _50  and  _51
REMARK   23  A    between atoms: _54  and  _56
REMARK   24  A    between atoms: _56  and  _57
REMARK   25  A    between atoms: _56  and  _59
REMARK   26  A    between atoms: _59  and  _60
REMARK   27  A    between atoms: _63  and  _65
REMARK   28  A    between atoms: _65  and  _66
REMARK   29  A    between atoms: _68  and  _70
REMARK   30  A    between atoms: _70  and  _71
REMARK   31  A    between atoms: _74  and  _76
REMARK   32  A    between atoms: _76  and  _77
REMARK   33  A    between atoms: _76  and  _79
REMARK   34  A    between atoms: _79  and  _80
REMARK   35  A    between atoms: _83  and  _85
REMARK   36  A    between atoms: _85  and  _86
REMARK   37  A    between atoms: _85  and  _88
REMARK   38  A    between atoms: _88  and  _89
REMARK   39  A    between atoms: _92  and  _94
REMARK   40  A    between atoms: _94  and  _95
REMARK   41  A    between atoms: _94  and  _97
REMARK   42  A    between atoms: _97  and  _98
REMARK   43  A    between atoms: _101  and  _103
REMARK   44  A    between atoms: _103  and  _104
REMARK   45  A    between atoms: _103  and  _106
REMARK   46  A    between atoms: _109  and  _111
REMARK   47  A    between atoms: _111  and  _112
REMARK   48  A    between atoms: _111  and  _114
REMARK   49  A    between atoms: _114  and  _115
REMARK   50  A    between atoms: _115  and  _116
REMARK   51  A    between atoms: _116  and  _117
REMARK   52  A    between atoms: _117  and  _118
REMARK   53  A    between atoms: _122  and  _124
REMARK   54  A    between atoms: _124  and  _125
REMARK   55  A    between atoms: _124  and  _127
REMARK   56  A    between atoms: _127  and  _128
REMARK   57  A    between atoms: _128  and  _129
REMARK   58  A    between atoms: _131  and  _133
REMARK   59  A    between atoms: _133  and  _134
REMARK   60  A    between atoms: _133  and  _136
REMARK   61  A    between atoms: _136  and  _137
REMARK   62  A    between atoms: _140  and  _142
REMARK   63  A    between atoms: _142  and  _143
REMARK   64  A    between atoms: _145  and  _147
REMARK   65  A    between atoms: _147  and  _148
REMARK   66  A    between atoms: _150  and  _152
REMARK   67  A    between atoms: _152  and  _153
REMARK   68  A    between atoms: _152  and  _155
REMARK   69  A    between atoms: _155  and  _156
REMARK   70  A    between atoms: _159  and  _161
REMARK   71  A    between atoms: _161  and  _162
REMARK   72  A    between atoms: _164  and  _166
REMARK   73  A    between atoms: _166  and  _167
REMARK   74  A    between atoms: _169  and  _171
REMARK   75  A    between atoms: _171  and  _172
REMARK   76  A    between atoms: _171  and  _174
REMARK   77  A    between atoms: _174  and  _175
REMARK   78  A    between atoms: _181  and  _183
REMARK   79  A    between atoms: _183  and  _184
REMARK   80  A    between atoms: _183  and  _186
REMARK   81  A    between atoms: _186  and  _187
REMARK   82  A    between atoms: _190  and  _192
REMARK   83  A    between atoms: _192  and  _193
REMARK   84  A    between atoms: _192  and  _195
REMARK   85  A    between atoms: _195  and  _196
REMARK   86  A    between atoms: _199  and  _201
REMARK   87  A    between atoms: _201  and  _202
REMARK   88  A    between atoms: _201  and  _204
REMARK   89  A    between atoms: _204  and  _205
REMARK   90  A    between atoms: _209  and  _210
REMARK   91  A    between atoms: _215  and  _217
REMARK   92  A    between atoms: _217  and  _218
REMARK   93  A    between atoms: _217  and  _220
REMARK   94  A    between atoms: _223  and  _225
REMARK   95  A    between atoms: _225  and  _226
REMARK   96  A    between atoms: _225  and  _228
REMARK   97  A    between atoms: _228  and  _229
REMARK   98  A    between atoms: _234  and  _236
REMARK   99  A    between atoms: _236  and  _237
REMARK  100  A    between atoms: _236  and  _239
REMARK  101  A    between atoms: _239  and  _240
REMARK  102  A    between atoms: _243  and  _245
REMARK  103  A    between atoms: _245  and  _246
REMARK  104  A    between atoms: _245  and  _248
REMARK  105  A    between atoms: _248  and  _249
REMARK  106  A    between atoms: _252  and  _254
REMARK  107  A    between atoms: _254  and  _255
REMARK  108  A    between atoms: _257  and  _259
REMARK  109  A    between atoms: _259  and  _260
REMARK  110  A    between atoms: _259  and  _262
REMARK  111  A    between atoms: _262  and  _263
REMARK  112  A    between atoms: _263  and  _264
REMARK  113  A    between atoms: _264  and  _265
REMARK  114  A    between atoms: _274  and  _276
REMARK  115  A    between atoms: _276  and  _277
REMARK  116  A    between atoms: _276  and  _279
REMARK  117  A    between atoms: _279  and  _280
REMARK  118  A    between atoms: _285  and  _287
REMARK  119  A    between atoms: _287  and  _288
REMARK  120  A    between atoms: _287  and  _290
REMARK  121  A    between atoms: _290  and  _291
REMARK  122  A    between atoms: _291  and  _292
REMARK  123  A    between atoms: _292  and  _293
REMARK  124  A    between atoms: _303  and  _304
REMARK  125  A    between atoms: _309  and  _311
REMARK  126  A    between atoms: _311  and  _312
REMARK  127  A    between atoms: _311  and  _314
REMARK  128  A    between atoms: _314  and  _315
REMARK  129  A    between atoms: _318  and  _320
REMARK  130  A    between atoms: _320  and  _321
REMARK  131  A    between atoms: _320  and  _323
REMARK  132  A    between atoms: _323  and  _324
REMARK  133  A    between atoms: _327  and  _329
REMARK  134  A    between atoms: _329  and  _330
REMARK  135  A    between atoms: _329  and  _332
REMARK  136  A    between atoms: _332  and  _333
REMARK  137  A    between atoms: _336  and  _338
REMARK  138  A    between atoms: _338  and  _339
REMARK  139  A    between atoms: _338  and  _341
REMARK  140  A    between atoms: _341  and  _342
REMARK  141  A    between atoms: _345  and  _347
REMARK  142  A    between atoms: _347  and  _348
REMARK  143  A    between atoms: _347  and  _350
REMARK  144  A    between atoms: _350  and  _351
REMARK  145  A    between atoms: _354  and  _356
REMARK  146  A    between atoms: _356  and  _357
REMARK  147  A    between atoms: _359  and  _361
REMARK  148  A    between atoms: _361  and  _362
REMARK  149  A    between atoms: _365  and  _367
REMARK  150  A    between atoms: _367  and  _368
REMARK  151  A    between atoms: _367  and  _370
REMARK  152  A    between atoms: _370  and  _371
REMARK  153  A    between atoms: _374  and  _376
REMARK  154  A    between atoms: _376  and  _377
REMARK  155  A    between atoms: _376  and  _379
REMARK  156  A    between atoms: _379  and  _380
REMARK  157  A    between atoms: _383  and  _385
REMARK  158  A    between atoms: _385  and  _386
REMARK  159  A    between atoms: _385  and  _388
REMARK  160  A    between atoms: _388  and  _389
REMARK  161  A    between atoms: _392  and  _394
REMARK  162  A    between atoms: _394  and  _395
REMARK  163  A    between atoms: _394  and  _397
REMARK  164  A    between atoms: _400  and  _402
REMARK  165  A    between atoms: _402  and  _403
REMARK  166  A    between atoms: _402  and  _405
REMARK  167  A    between atoms: _405  and  _406
REMARK  168  A    between atoms: _409  and  _411
REMARK  169  A    between atoms: _411  and  _412
REMARK  170  A    between atoms: _414  and  _416
REMARK  171  A    between atoms: _416  and  _417
REMARK  172  A    between atoms: _419  and  _421
REMARK  173  A    between atoms: _421  and  _422
REMARK  174  A    between atoms: _421  and  _424
REMARK  175  A    between atoms: _424  and  _425
REMARK  176  A    between atoms: _428  and  _430
REMARK  177  A    between atoms: _430  and  _431
REMARK  178  A    between atoms: _433  and  _435
REMARK  179  A    between atoms: _435  and  _436
REMARK  180  A    between atoms: _438  and  _440
REMARK  181  A    between atoms: _440  and  _441
REMARK  182  A    between atoms: _440  and  _443
REMARK  183  A    between atoms: _443  and  _444
REMARK  184  A    between atoms: _450  and  _452
REMARK  185  A    between atoms: _452  and  _453
REMARK  186  A    between atoms: _452  and  _455
REMARK  187  A    between atoms: _455  and  _456
REMARK  188  A    between atoms: _459  and  _461
REMARK  189  A    between atoms: _461  and  _462
REMARK  190  A    between atoms: _461  and  _464
REMARK  191  A    between atoms: _464  and  _465
REMARK  192  A    between atoms: _468  and  _470
REMARK  193  A    between atoms: _470  and  _471
REMARK  194  A    between atoms: _470  and  _473
REMARK  195  A    between atoms: _473  and  _474
REMARK  196  A    between atoms: _478  and  _479
REMARK  197  A    between atoms: _484  and  _486
REMARK  198  A    between atoms: _486  and  _487
REMARK  199  A    between atoms: _486  and  _489
REMARK  200  A    between atoms: _492  and  _494
REMARK  201  A    between atoms: _494  and  _495
REMARK  202  A    between atoms: _494  and  _497
REMARK  203  A    between atoms: _497  and  _498
REMARK  204  A    between atoms: _503  and  _505
REMARK  205  A    between atoms: _505  and  _506
REMARK  206  A    between atoms: _505  and  _508
REMARK  207  A    between atoms: _508  and  _509
REMARK  208  A    between atoms: _512  and  _514
REMARK  209  A    between atoms: _514  and  _515
REMARK  210  A    between atoms: _514  and  _517
REMARK  211  A    between atoms: _517  and  _518
REMARK  212  A    between atoms: _521  and  _523
REMARK  213  A    between atoms: _523  and  _524
REMARK  214  A    between atoms: _526  and  _528
REMARK  215  A    between atoms: _528  and  _529
REMARK  216  A    between atoms: _528  and  _531
REMARK  217  A    between atoms: _531  and  _532
REMARK  218  A    between atoms: _532  and  _533
REMARK  219  A    between atoms: _533  and  _534
REMARK                            x       y       z     vdW  Elec       q    Type
REMARK                         _______ _______ _______ _____ _____    ______ ____
ROOT
ATOM      1  O   HOH     1       7.171  20.070  29.394  0.00  0.00    +0.000 OA
ENDROOT
TORSDOF 0
REMARK  Name = ../refined-set-2016/2o4p/2o4p_pocket.pdb
REMARK  219 active torsions:
REMARK  status: ('A' for Active; 'I' for Inactive)
REMARK    1  A    between atoms: _1  and  _3
REMARK    2  A    between atoms: _3  and  _4
REMARK    3  A    between atoms: _3  and  _6
REMARK    4  A    between atoms: _6  and  _7
REMARK    5  A    between atoms: _7  and  _8
REMARK    6  A    between atoms: _8  and  _9
REMARK    7  A    between atoms: _18  and  _20
REMARK    8  A    between atoms: _20  and  _21
REMARK    9  A    between atoms: _20  and  _23
REMARK   10  A    between atoms: _23  and  _24
REMARK   11  A    between atoms: _27  and  _29
REMARK   12  A    between atoms: _29  and  _30
REMARK   13  A    between atoms: _29  and  _32
REMARK   14  A    between atoms: _32  and  _33
REMARK   15  A    between atoms: _36  and  _38
REMARK   16  A    between atoms: _38  and  _39
REMARK   17  A    between atoms: _38  and  _41
REMARK   18  A    between atoms: _41  and  _42
REMARK   19  A    between atoms: _45  and  _47
REMARK   20  A    between atoms: _47  and  _48
REMARK   21  A    between atoms: _47  and  _50
REMARK   22  A    between atoms: _50  and  _51
REMARK   23  A    between atoms: _54  and  _56
REMARK   24  A    between atoms: _56  and  _57
REMARK   25  A    between atoms: _56  and  _59
REMARK   26  A    between atoms: _59  and  _60
REMARK   27  A    between atoms: _63  and  _65
REMARK   28  A    between atoms: _65  and  _66
REMARK   29  A    between atoms: _68  and  _70
REMARK   30  A    between atoms: _70  and  _71
REMARK   31  A    between atoms: _74  and  _76
REMARK   32  A    between atoms: _76  and  _77
REMARK   33  A    between atoms: _76  and  _79
REMARK   34  A    between atoms: _79  and  _80
REMARK   35  A    between atoms: _83  and  _85
REMARK   36  A    between atoms: _85  and  _86
REMARK   37  A    between atoms: _85  and  _88
REMARK   38  A    between atoms: _88  and  _89
REMARK   39  A    between atoms: _92  and  _94
REMARK   40  A    between atoms: _94  and  _95
REMARK   41  A    between atoms: _94  and  _97
REMARK   42  A    between atoms: _97  and  _98
REMARK   43  A    between atoms: _101  and  _103
REMARK   44  A    between atoms: _103  and  _104
REMARK   45  A    between atoms: _103  and  _106
REMARK   46  A    between atoms: _109  and  _111
REMARK   47  A    between atoms: _111  and  _112
REMARK   48  A    between atoms: _111  and  _114
REMARK   49  A    between atoms: _114  and  _115
REMARK   50  A    between atoms: _115  and  _116
REMARK   51  A    between atoms: _116  and  _117
REMARK   52  A    between atoms: _117  and  _118
REMARK   53  A    between atoms: _122  and  _124
REMARK   54  A    between atoms: _124  and  _125
REMARK   55  A    between atoms: _124  and  _127
REMARK   56  A    between atoms: _127  and  _128
REMARK   57  A    between atoms: _128  and  _129
REMARK   58  A    between atoms: _131  and  _133
REMARK   59  A    between atoms: _133  and  _134
REMARK   60  A    between atoms: _133  and  _136
REMARK   61  A    between atoms: _136  and  _137
REMARK   62  A    between atoms: _140  and  _142
REMARK   63  A    between atoms: _142  and  _143
REMARK   64  A    between atoms: _145  and  _147
REMARK   65  A    between atoms: _147  and  _148
REMARK   66  A    between atoms: _150  and  _152
REMARK   67  A    between atoms: _152  and  _153
REMARK   68  A    between atoms: _152  and  _155
REMARK   69  A    between atoms: _155  and  _156
REMARK   70  A    between atoms: _159  and  _161
REMARK   71  A    between atoms: _161  and  _162
REMARK   72  A    between atoms: _164  and  _166
REMARK   73  A    between atoms: _166  and  _167
REMARK   74  A    between atoms: _169  and  _171
REMARK   75  A    between atoms: _171  and  _172
REMARK   76  A    between atoms: _171  and  _174
REMARK   77  A    between atoms: _174  and  _175
REMARK   78  A    between atoms: _181  and  _183
REMARK   79  A    between atoms: _183  and  _184
REMARK   80  A    between atoms: _183  and  _186
REMARK   81  A    between atoms: _186  and  _187
REMARK   82  A    between atoms: _190  and  _192
REMARK   83  A    between atoms: _192  and  _193
REMARK   84  A    between atoms: _192  and  _195
REMARK   85  A    between atoms: _195  and  _196
REMARK   86  A    between atoms: _199  and  _201
REMARK   87  A    between atoms: _201  and  _202
REMARK   88  A    between atoms: _201  and  _204
REMARK   89  A    between atoms: _204  and  _205
REMARK   90  A    between atoms: _209  and  _210
REMARK   91  A    between atoms: _215  and  _217
REMARK   92  A    between atoms: _217  and  _218
REMARK   93  A    between atoms: _217  and  _220
REMARK   94  A    between atoms: _223  and  _225
REMARK   95  A    between atoms: _225  and  _226
REMARK   96  A    between atoms: _225  and  _228
REMARK   97  A    between atoms: _228  and  _229
REMARK   98  A    between atoms: _234  and  _236
REMARK   99  A    between atoms: _236  and  _237
REMARK  100  A    between atoms: _236  and  _239
REMARK  101  A    between atoms: _239  and  _240
REMARK  102  A    between atoms: _243  and  _245
REMARK  103  A    between atoms: _245  and  _246
REMARK  104  A    between atoms: _245  and  _248
REMARK  105  A    between atoms: _248  and  _249
REMARK  106  A    between atoms: _252  and  _254
REMARK  107  A    between atoms: _254  and  _255
REMARK  108  A    between atoms: _257  and  _259
REMARK  109  A    between atoms: _259  and  _260
REMARK  110  A    between atoms: _259  and  _262
REMARK  111  A    between atoms: _262  and  _263
REMARK  112  A    between atoms: _263  and  _264
REMARK  113  A    between atoms: _264  and  _265
REMARK  114  A    between atoms: _274  and  _276
REMARK  115  A    between atoms: _276  and  _277
REMARK  116  A    between atoms: _276  and  _279
REMARK  117  A    between atoms: _279  and  _280
REMARK  118  A    between atoms: _285  and  _287
REMARK  119  A    between atoms: _287  and  _288
REMARK  120  A    between atoms: _287  and  _290
REMARK  121  A    between atoms: _290  and  _291
REMARK  122  A    between atoms: _291  and  _292
REMARK  123  A    between atoms: _292  and  _293
REMARK  124  A    between atoms: _303  and  _304
REMARK  125  A    between atoms: _309  and  _311
REMARK  126  A    between atoms: _311  and  _312
REMARK  127  A    between atoms: _311  and  _314
REMARK  128  A    between atoms: _314  and  _315
REMARK  129  A    between atoms: _318  and  _320
REMARK  130  A    between atoms: _320  and  _321
REMARK  131  A    between atoms: _320  and  _323
REMARK  132  A    between atoms: _323  and  _324
REMARK  133  A    between atoms: _327  and  _329
REMARK  134  A    between atoms: _329  and  _330
REMARK  135  A    between atoms: _329  and  _332
REMARK  136  A    between atoms: _332  and  _333
REMARK  137  A    between atoms: _336  and  _338
REMARK  138  A    between atoms: _338  and  _339
REMARK  139  A    between atoms: _338  and  _341
REMARK  140  A    between atoms: _341  and  _342
REMARK  141  A    between atoms: _345  and  _347
REMARK  142  A    between atoms: _347  and  _348
REMARK  143  A    between atoms: _347  and  _350
REMARK  144  A    between atoms: _350  and  _351
REMARK  145  A    between atoms: _354  and  _356
REMARK  146  A    between atoms: _356  and  _357
REMARK  147  A    between atoms: _359  and  _361
REMARK  148  A    between atoms: _361  and  _362
REMARK  149  A    between atoms: _365  and  _367
REMARK  150  A    between atoms: _367  and  _368
REMARK  151  A    between atoms: _367  and  _370
REMARK  152  A    between atoms: _370  and  _371
REMARK  153  A    between atoms: _374  and  _376
REMARK  154  A    between atoms: _376  and  _377
REMARK  155  A    between atoms: _376  and  _379
REMARK  156  A    between atoms: _379  and  _380
REMARK  157  A    between atoms: _383  and  _385
REMARK  158  A    between atoms: _385  and  _386
REMARK  159  A    between atoms: _385  and  _388
REMARK  160  A    between atoms: _388  and  _389
REMARK  161  A    between atoms: _392  and  _394
REMARK  162  A    between atoms: _394  and  _395
REMARK  163  A    between atoms: _394  and  _397
REMARK  164  A    between atoms: _400  and  _402
REMARK  165  A    between atoms: _402  and  _403
REMARK  166  A    between atoms: _402  and  _405
REMARK  167  A    between atoms: _405  and  _406
REMARK  168  A    between atoms: _409  and  _411
REMARK  169  A    between atoms: _411  and  _412
REMARK  170  A    between atoms: _414  and  _416
REMARK  171  A    between atoms: _416  and  _417
REMARK  172  A    between atoms: _419  and  _421
REMARK  173  A    between atoms: _421  and  _422
REMARK  174  A    between atoms: _421  and  _424
REMARK  175  A    between atoms: _424  and  _425
REMARK  176  A    between atoms: _428  and  _430
REMARK  177  A    between atoms: _430  and  _431
REMARK  178  A    between atoms: _433  and  _435
REMARK  179  A    between atoms: _435  and  _436
REMARK  180  A    between atoms: _438  and  _440
REMARK  181  A    between atoms: _440  and  _441
REMARK  182  A    between atoms: _440  and  _443
REMARK  183  A    between atoms: _443  and  _444
REMARK  184  A    between atoms: _450  and  _452
REMARK  185  A    between atoms: _452  and  _453
REMARK  186  A    between atoms: _452  and  _455
REMARK  187  A    between atoms: _455  and  _456
REMARK  188  A    between atoms: _459  and  _461
REMARK  189  A    between atoms: _461  and  _462
REMARK  190  A    between atoms: _461  and  _464
REMARK  191  A    between atoms: _464  and  _465
REMARK  192  A    between atoms: _468  and  _470
REMARK  193  A    between atoms: _470  and  _471
REMARK  194  A    between atoms: _470  and  _473
REMARK  195  A    between atoms: _473  and  _474
REMARK  196  A    between atoms: _478  and  _479
REMARK  197  A    between atoms: _484  and  _486
REMARK  198  A    between atoms: _486  and  _487
REMARK  199  A    between atoms: _486  and  _489
REMARK  200  A    between atoms: _492  and  _494
REMARK  201  A    between atoms: _494  and  _495
REMARK  202  A    between atoms: _494  and  _497
REMARK  203  A    between atoms: _497  and  _498
REMARK  204  A    between atoms: _503  and  _505
REMARK  205  A    between atoms: _505  and  _506
REMARK  206  A    between atoms: _505  and  _508
REMARK  207  A    between atoms: _508  and  _509
REMARK  208  A    between atoms: _512  and  _514
REMARK  209  A    between atoms: _514  and  _515
REMARK  210  A    between atoms: _514  and  _517
REMARK  211  A    between atoms: _517  and  _518
REMARK  212  A    between atoms: _521  and  _523
REMARK  213  A    between atoms: _523  and  _524
REMARK  214  A    between atoms: _526  and  _528
REMARK  215  A    between atoms: _528  and  _529
REMARK  216  A    between atoms: _528  and  _531
REMARK  217  A    between atoms: _531  and  _532
REMARK  218  A    between atoms: _532  and  _533
REMARK  219  A    between atoms: _533  and  _534
REMARK                            x       y       z     vdW  Elec       q    Type
REMARK                         _______ _______ _______ _____ _____    ______ ____
ROOT
ATOM      1  O   HOH     1      22.219  19.527  18.039  0.00  0.00    +0.000 OA
ENDROOT
TORSDOF 0
REMARK  Name = ../refined-set-2016/2o4p/2o4p_pocket.pdb
REMARK  219 active torsions:
REMARK  status: ('A' for Active; 'I' for Inactive)
REMARK    1  A    between atoms: _1  and  _3
REMARK    2  A    between atoms: _3  and  _4
REMARK    3  A    between atoms: _3  and  _6
REMARK    4  A    between atoms: _6  and  _7
REMARK    5  A    between atoms: _7  and  _8
REMARK    6  A    between atoms: _8  and  _9
REMARK    7  A    between atoms: _18  and  _20
REMARK    8  A    between atoms: _20  and  _21
REMARK    9  A    between atoms: _20  and  _23
REMARK   10  A    between atoms: _23  and  _24
REMARK   11  A    between atoms: _27  and  _29
REMARK   12  A    between atoms: _29  and  _30
REMARK   13  A    between atoms: _29  and  _32
REMARK   14  A    between atoms: _32  and  _33
REMARK   15  A    between atoms: _36  and  _38
REMARK   16  A    between atoms: _38  and  _39
REMARK   17  A    between atoms: _38  and  _41
REMARK   18  A    between atoms: _41  and  _42
REMARK   19  A    between atoms: _45  and  _47
REMARK   20  A    between atoms: _47  and  _48
REMARK   21  A    between atoms: _47  and  _50
REMARK   22  A    between atoms: _50  and  _51
REMARK   23  A    between atoms: _54  and  _56
REMARK   24  A    between atoms: _56  and  _57
REMARK   25  A    between atoms: _56  and  _59
REMARK   26  A    between atoms: _59  and  _60
REMARK   27  A    between atoms: _63  and  _65
REMARK   28  A    between atoms: _65  and  _66
REMARK   29  A    between atoms: _68  and  _70
REMARK   30  A    between atoms: _70  and  _71
REMARK   31  A    between atoms: _74  and  _76
REMARK   32  A    between atoms: _76  and  _77
REMARK   33  A    between atoms: _76  and  _79
REMARK   34  A    between atoms: _79  and  _80
REMARK   35  A    between atoms: _83  and  _85
REMARK   36  A    between atoms: _85  and  _86
REMARK   37  A    between atoms: _85  and  _88
REMARK   38  A    between atoms: _88  and  _89
REMARK   39  A    between atoms: _92  and  _94
REMARK   40  A    between atoms: _94  and  _95
REMARK   41  A    between atoms: _94  and  _97
REMARK   42  A    between atoms: _97  and  _98
REMARK   43  A    between atoms: _101  and  _103
REMARK   44  A    between atoms: _103  and  _104
REMARK   45  A    between atoms: _103  and  _106
REMARK   46  A    between atoms: _109  and  _111
REMARK   47  A    between atoms: _111  and  _112
REMARK   48  A    between atoms: _111  and  _114
REMARK   49  A    between atoms: _114  and  _115
REMARK   50  A    between atoms: _115  and  _116
REMARK   51  A    between atoms: _116  and  _117
REMARK   52  A    between atoms: _117  and  _118
REMARK   53  A    between atoms: _122  and  _124
REMARK   54  A    between atoms: _124  and  _125
REMARK   55  A    between atoms: _124  and  _127
REMARK   56  A    between atoms: _127  and  _128
REMARK   57  A    between atoms: _128  and  _129
REMARK   58  A    between atoms: _131  and  _133
REMARK   59  A    between atoms: _133  and  _134
REMARK   60  A    between atoms: _133  and  _136
REMARK   61  A    between atoms: _136  and  _137
REMARK   62  A    between atoms: _140  and  _142
REMARK   63  A    between atoms: _142  and  _143
REMARK   64  A    between atoms: _145  and  _147
REMARK   65  A    between atoms: _147  and  _148
REMARK   66  A    between atoms: _150  and  _152
REMARK   67  A    between atoms: _152  and  _153
REMARK   68  A    between atoms: _152  and  _155
REMARK   69  A    between atoms: _155  and  _156
REMARK   70  A    between atoms: _159  and  _161
REMARK   71  A    between atoms: _161  and  _162
REMARK   72  A    between atoms: _164  and  _166
REMARK   73  A    between atoms: _166  and  _167
REMARK   74  A    between atoms: _169  and  _171
REMARK   75  A    between atoms: _171  and  _172
REMARK   76  A    between atoms: _171  and  _174
REMARK   77  A    between atoms: _174  and  _175
REMARK   78  A    between atoms: _181  and  _183
REMARK   79  A    between atoms: _183  and  _184
REMARK   80  A    between atoms: _183  and  _186
REMARK   81  A    between atoms: _186  and  _187
REMARK   82  A    between atoms: _190  and  _192
REMARK   83  A    between atoms: _192  and  _193
REMARK   84  A    between atoms: _192  and  _195
REMARK   85  A    between atoms: _195  and  _196
REMARK   86  A    between atoms: _199  and  _201
REMARK   87  A    between atoms: _201  and  _202
REMARK   88  A    between atoms: _201  and  _204
REMARK   89  A    between atoms: _204  and  _205
REMARK   90  A    between atoms: _209  and  _210
REMARK   91  A    between atoms: _215  and  _217
REMARK   92  A    between atoms: _217  and  _218
REMARK   93  A    between atoms: _217  and  _220
REMARK   94  A    between atoms: _223  and  _225
REMARK   95  A    between atoms: _225  and  _226
REMARK   96  A    between atoms: _225  and  _228
REMARK   97  A    between atoms: _228  and  _229
REMARK   98  A    between atoms: _234  and  _236
REMARK   99  A    between atoms: _236  and  _237
REMARK  100  A    between atoms: _236  and  _239
REMARK  101  A    between atoms: _239  and  _240
REMARK  102  A    between atoms: _243  and  _245
REMARK  103  A    between atoms: _245  and  _246
REMARK  104  A    between atoms: _245  and  _248
REMARK  105  A    between atoms: _248  and  _249
REMARK  106  A    between atoms: _252  and  _254
REMARK  107  A    between atoms: _254  and  _255
REMARK  108  A    between atoms: _257  and  _259
REMARK  109  A    between atoms: _259  and  _260
REMARK  110  A    between atoms: _259  and  _262
REMARK  111  A    between atoms: _262  and  _263
REMARK  112  A    between atoms: _263  and  _264
REMARK  113  A    between atoms: _264  and  _265
REMARK  114  A    between atoms: _274  and  _276
REMARK  115  A    between atoms: _276  and  _277
REMARK  116  A    between atoms: _276  and  _279
REMARK  117  A    between atoms: _279  and  _280
REMARK  118  A    between atoms: _285  and  _287
REMARK  119  A    between atoms: _287  and  _288
REMARK  120  A    between atoms: _287  and  _290
REMARK  121  A    between atoms: _290  and  _291
REMARK  122  A    between atoms: _291  and  _292
REMARK  123  A    between atoms: _292  and  _293
REMARK  124  A    between atoms: _303  and  _304
REMARK  125  A    between atoms: _309  and  _311
REMARK  126  A    between atoms: _311  and  _312
REMARK  127  A    between atoms: _311  and  _314
REMARK  128  A    between atoms: _314  and  _315
REMARK  129  A    between atoms: _318  and  _320
REMARK  130  A    between atoms: _320  and  _321
REMARK  131  A    between atoms: _320  and  _323
REMARK  132  A    between atoms: _323  and  _324
REMARK  133  A    between atoms: _327  and  _329
REMARK  134  A    between atoms: _329  and  _330
REMARK  135  A    between atoms: _329  and  _332
REMARK  136  A    between atoms: _332  and  _333
REMARK  137  A    between atoms: _336  and  _338
REMARK  138  A    between atoms: _338  and  _339
REMARK  139  A    between atoms: _338  and  _341
REMARK  140  A    between atoms: _341  and  _342
REMARK  141  A    between atoms: _345  and  _347
REMARK  142  A    between atoms: _347  and  _348
REMARK  143  A    between atoms: _347  and  _350
REMARK  144  A    between atoms: _350  and  _351
REMARK  145  A    between atoms: _354  and  _356
REMARK  146  A    between atoms: _356  and  _357
REMARK  147  A    between atoms: _359  and  _361
REMARK  148  A    between atoms: _361  and  _362
REMARK  149  A    between atoms: _365  and  _367
REMARK  150  A    between atoms: _367  and  _368
REMARK  151  A    between atoms: _367  and  _370
REMARK  152  A    between atoms: _370  and  _371
REMARK  153  A    between atoms: _374  and  _376
REMARK  154  A    between atoms: _376  and  _377
REMARK  155  A    between atoms: _376  and  _379
REMARK  156  A    between atoms: _379  and  _380
REMARK  157  A    between atoms: _383  and  _385
REMARK  158  A    between atoms: _385  and  _386
REMARK  159  A    between atoms: _385  and  _388
REMARK  160  A    between atoms: _388  and  _389
REMARK  161  A    between atoms: _392  and  _394
REMARK  162  A    between atoms: _394  and  _395
REMARK  163  A    between atoms: _394  and  _397
REMARK  164  A    between atoms: _400  and  _402
REMARK  165  A    between atoms: _402  and  _403
REMARK  166  A    between atoms: _402  and  _405
REMARK  167  A    between atoms: _405  and  _406
REMARK  168  A    between atoms: _409  and  _411
REMARK  169  A    between atoms: _411  and  _412
REMARK  170  A    between atoms: _414  and  _416
REMARK  171  A    between atoms: _416  and  _417
REMARK  172  A    between atoms: _419  and  _421
REMARK  173  A    between atoms: _421  and  _422
REMARK  174  A    between atoms: _421  and  _424
REMARK  175  A    between atoms: _424  and  _425
REMARK  176  A    between atoms: _428  and  _430
REMARK  177  A    between atoms: _430  and  _431
REMARK  178  A    between atoms: _433  and  _435
REMARK  179  A    between atoms: _435  and  _436
REMARK  180  A    between atoms: _438  and  _440
REMARK  181  A    between atoms: _440  and  _441
REMARK  182  A    between atoms: _440  and  _443
REMARK  183  A    between atoms: _443  and  _444
REMARK  184  A    between atoms: _450  and  _452
REMARK  185  A    between atoms: _452  and  _453
REMARK  186  A    between atoms: _452  and  _455
REMARK  187  A    between atoms: _455  and  _456
REMARK  188  A    between atoms: _459  and  _461
REMARK  189  A    between atoms: _461  and  _462
REMARK  190  A    between atoms: _461  and  _464
REMARK  191  A    between atoms: _464  and  _465
REMARK  192  A    between atoms: _468  and  _470
REMARK  193  A    between atoms: _470  and  _471
REMARK  194  A    between atoms: _470  and  _473
REMARK  195  A    between atoms: _473  and  _474
REMARK  196  A    between atoms: _478  and  _479
REMARK  197  A    between atoms: _484  and  _486
REMARK  198  A    between atoms: _486  and  _487
REMARK  199  A    between atoms: _486  and  _489
REMARK  200  A    between atoms: _492  and  _494
REMARK  201  A    between atoms: _494  and  _495
REMARK  202  A    between atoms: _494  and  _497
REMARK  203  A    between atoms: _497  and  _498
REMARK  204  A    between atoms: _503  and  _505
REMARK  205  A    between atoms: _505  and  _506
REMARK  206  A    between atoms: _505  and  _508
REMARK  207  A    between atoms: _508  and  _509
REMARK  208  A    between atoms: _512  and  _514
REMARK  209  A    between atoms: _514  and  _515
REMARK  210  A    between atoms: _514  and  _517
REMARK  211  A    between atoms: _517  and  _518
REMARK  212  A    between atoms: _521  and  _523
REMARK  213  A    between atoms: _523  and  _524
REMARK  214  A    between atoms: _526  and  _528
REMARK  215  A    between atoms: _528  and  _529
REMARK  216  A    between atoms: _528  and  _531
REMARK  217  A    between atoms: _531  and  _532
REMARK  218  A    between atoms: _532  and  _533
REMARK  219  A    between atoms: _533  and  _534
REMARK                            x       y       z     vdW  Elec       q    Type
REMARK                         _______ _______ _______ _____ _____    ______ ____
ROOT
ATOM      1  O   HOH     1       2.729  19.809  24.157  0.00  0.00    +0.000 OA
ENDROOT
TORSDOF 0
REMARK  Name = ../refined-set-2016/2o4p/2o4p_pocket.pdb
REMARK  219 active torsions:
REMARK  status: ('A' for Active; 'I' for Inactive)
REMARK    1  A    between atoms: _1  and  _3
REMARK    2  A    between atoms: _3  and  _4
REMARK    3  A    between atoms: _3  and  _6
REMARK    4  A    between atoms: _6  and  _7
REMARK    5  A    between atoms: _7  and  _8
REMARK    6  A    between atoms: _8  and  _9
REMARK    7  A    between atoms: _18  and  _20
REMARK    8  A    between atoms: _20  and  _21
REMARK    9  A    between atoms: _20  and  _23
REMARK   10  A    between atoms: _23  and  _24
REMARK   11  A    between atoms: _27  and  _29
REMARK   12  A    between atoms: _29  and  _30
REMARK   13  A    between atoms: _29  and  _32
REMARK   14  A    between atoms: _32  and  _33
REMARK   15  A    between atoms: _36  and  _38
REMARK   16  A    between atoms: _38  and  _39
REMARK   17  A    between atoms: _38  and  _41
REMARK   18  A    between atoms: _41  and  _42
REMARK   19  A    between atoms: _45  and  _47
REMARK   20  A    between atoms: _47  and  _48
REMARK   21  A    between atoms: _47  and  _50
REMARK   22  A    between atoms: _50  and  _51
REMARK   23  A    between atoms: _54  and  _56
REMARK   24  A    between atoms: _56  and  _57
REMARK   25  A    between atoms: _56  and  _59
REMARK   26  A    between atoms: _59  and  _60
REMARK   27  A    between atoms: _63  and  _65
REMARK   28  A    between atoms: _65  and  _66
REMARK   29  A    between atoms: _68  and  _70
REMARK   30  A    between atoms: _70  and  _71
REMARK   31  A    between atoms: _74  and  _76
REMARK   32  A    between atoms: _76  and  _77
REMARK   33  A    between atoms: _76  and  _79
REMARK   34  A    between atoms: _79  and  _80
REMARK   35  A    between atoms: _83  and  _85
REMARK   36  A    between atoms: _85  and  _86
REMARK   37  A    between atoms: _85  and  _88
REMARK   38  A    between atoms: _88  and  _89
REMARK   39  A    between atoms: _92  and  _94
REMARK   40  A    between atoms: _94  and  _95
REMARK   41  A    between atoms: _94  and  _97
REMARK   42  A    between atoms: _97  and  _98
REMARK   43  A    between atoms: _101  and  _103
REMARK   44  A    between atoms: _103  and  _104
REMARK   45  A    between atoms: _103  and  _106
REMARK   46  A    between atoms: _109  and  _111
REMARK   47  A    between atoms: _111  and  _112
REMARK   48  A    between atoms: _111  and  _114
REMARK   49  A    between atoms: _114  and  _115
REMARK   50  A    between atoms: _115  and  _116
REMARK   51  A    between atoms: _116  and  _117
REMARK   52  A    between atoms: _117  and  _118
REMARK   53  A    between atoms: _122  and  _124
REMARK   54  A    between atoms: _124  and  _125
REMARK   55  A    between atoms: _124  and  _127
REMARK   56  A    between atoms: _127  and  _128
REMARK   57  A    between atoms: _128  and  _129
REMARK   58  A    between atoms: _131  and  _133
REMARK   59  A    between atoms: _133  and  _134
REMARK   60  A    between atoms: _133  and  _136
REMARK   61  A    between atoms: _136  and  _137
REMARK   62  A    between atoms: _140  and  _142
REMARK   63  A    between atoms: _142  and  _143
REMARK   64  A    between atoms: _145  and  _147
REMARK   65  A    between atoms: _147  and  _148
REMARK   66  A    between atoms: _150  and  _152
REMARK   67  A    between atoms: _152  and  _153
REMARK   68  A    between atoms: _152  and  _155
REMARK   69  A    between atoms: _155  and  _156
REMARK   70  A    between atoms: _159  and  _161
REMARK   71  A    between atoms: _161  and  _162
REMARK   72  A    between atoms: _164  and  _166
REMARK   73  A    between atoms: _166  and  _167
REMARK   74  A    between atoms: _169  and  _171
REMARK   75  A    between atoms: _171  and  _172
REMARK   76  A    between atoms: _171  and  _174
REMARK   77  A    between atoms: _174  and  _175
REMARK   78  A    between atoms: _181  and  _183
REMARK   79  A    between atoms: _183  and  _184
REMARK   80  A    between atoms: _183  and  _186
REMARK   81  A    between atoms: _186  and  _187
REMARK   82  A    between atoms: _190  and  _192
REMARK   83  A    between atoms: _192  and  _193
REMARK   84  A    between atoms: _192  and  _195
REMARK   85  A    between atoms: _195  and  _196
REMARK   86  A    between atoms: _199  and  _201
REMARK   87  A    between atoms: _201  and  _202
REMARK   88  A    between atoms: _201  and  _204
REMARK   89  A    between atoms: _204  and  _205
REMARK   90  A    between atoms: _209  and  _210
REMARK   91  A    between atoms: _215  and  _217
REMARK   92  A    between atoms: _217  and  _218
REMARK   93  A    between atoms: _217  and  _220
REMARK   94  A    between atoms: _223  and  _225
REMARK   95  A    between atoms: _225  and  _226
REMARK   96  A    between atoms: _225  and  _228
REMARK   97  A    between atoms: _228  and  _229
REMARK   98  A    between atoms: _234  and  _236
REMARK   99  A    between atoms: _236  and  _237
REMARK  100  A    between atoms: _236  and  _239
REMARK  101  A    between atoms: _239  and  _240
REMARK  102  A    between atoms: _243  and  _245
REMARK  103  A    between atoms: _245  and  _246
REMARK  104  A    between atoms: _245  and  _248
REMARK  105  A    between atoms: _248  and  _249
REMARK  106  A    between atoms: _252  and  _254
REMARK  107  A    between atoms: _254  and  _255
REMARK  108  A    between atoms: _257  and  _259
REMARK  109  A    between atoms: _259  and  _260
REMARK  110  A    between atoms: _259  and  _262
REMARK  111  A    between atoms: _262  and  _263
REMARK  112  A    between atoms: _263  and  _264
REMARK  113  A    between atoms: _264  and  _265
REMARK  114  A    between atoms: _274  and  _276
REMARK  115  A    between atoms: _276  and  _277
REMARK  116  A    between atoms: _276  and  _279
REMARK  117  A    between atoms: _279  and  _280
REMARK  118  A    between atoms: _285  and  _287
REMARK  119  A    between atoms: _287  and  _288
REMARK  120  A    between atoms: _287  and  _290
REMARK  121  A    between atoms: _290  and  _291
REMARK  122  A    between atoms: _291  and  _292
REMARK  123  A    between atoms: _292  and  _293
REMARK  124  A    between atoms: _303  and  _304
REMARK  125  A    between atoms: _309  and  _311
REMARK  126  A    between atoms: _311  and  _312
REMARK  127  A    between atoms: _311  and  _314
REMARK  128  A    between atoms: _314  and  _315
REMARK  129  A    between atoms: _318  and  _320
REMARK  130  A    between atoms: _320  and  _321
REMARK  131  A    between atoms: _320  and  _323
REMARK  132  A    between atoms: _323  and  _324
REMARK  133  A    between atoms: _327  and  _329
REMARK  134  A    between atoms: _329  and  _330
REMARK  135  A    between atoms: _329  and  _332
REMARK  136  A    between atoms: _332  and  _333
REMARK  137  A    between atoms: _336  and  _338
REMARK  138  A    between atoms: _338  and  _339
REMARK  139  A    between atoms: _338  and  _341
REMARK  140  A    between atoms: _341  and  _342
REMARK  141  A    between atoms: _345  and  _347
REMARK  142  A    between atoms: _347  and  _348
REMARK  143  A    between atoms: _347  and  _350
REMARK  144  A    between atoms: _350  and  _351
REMARK  145  A    between atoms: _354  and  _356
REMARK  146  A    between atoms: _356  and  _357
REMARK  147  A    between atoms: _359  and  _361
REMARK  148  A    between atoms: _361  and  _362
REMARK  149  A    between atoms: _365  and  _367
REMARK  150  A    between atoms: _367  and  _368
REMARK  151  A    between atoms: _367  and  _370
REMARK  152  A    between atoms: _370  and  _371
REMARK  153  A    between atoms: _374  and  _376
REMARK  154  A    between atoms: _376  and  _377
REMARK  155  A    between atoms: _376  and  _379
REMARK  156  A    between atoms: _379  and  _380
REMARK  157  A    between atoms: _383  and  _385
REMARK  158  A    between atoms: _385  and  _386
REMARK  159  A    between atoms: _385  and  _388
REMARK  160  A    between atoms: _388  and  _389
REMARK  161  A    between atoms: _392  and  _394
REMARK  162  A    between atoms: _394  and  _395
REMARK  163  A    between atoms: _394  and  _397
REMARK  164  A    between atoms: _400  and  _402
REMARK  165  A    between atoms: _402  and  _403
REMARK  166  A    between atoms: _402  and  _405
REMARK  167  A    between atoms: _405  and  _406
REMARK  168  A    between atoms: _409  and  _411
REMARK  169  A    between atoms: _411  and  _412
REMARK  170  A    between atoms: _414  and  _416
REMARK  171  A    between atoms: _416  and  _417
REMARK  172  A    between atoms: _419  and  _421
REMARK  173  A    between atoms: _421  and  _422
REMARK  174  A    between atoms: _421  and  _424
REMARK  175  A    between atoms: _424  and  _425
REMARK  176  A    between atoms: _428  and  _430
REMARK  177  A    between atoms: _430  and  _431
REMARK  178  A    between atoms: _433  and  _435
REMARK  179  A    between atoms: _435  and  _436
REMARK  180  A    between atoms: _438  and  _440
REMARK  181  A    between atoms: _440  and  _441
REMARK  182  A    between atoms: _440  and  _443
REMARK  183  A    between atoms: _443  and  _444
REMARK  184  A    between atoms: _450  and  _452
REMARK  185  A    between atoms: _452  and  _453
REMARK  186  A    between atoms: _452  and  _455
REMARK  187  A    between atoms: _455  and  _456
REMARK  188  A    between atoms: _459  and  _461
REMARK  189  A    between atoms: _461  and  _462
REMARK  190  A    between atoms: _461  and  _464
REMARK  191  A    between atoms: _464  and  _465
REMARK  192  A    between atoms: _468  and  _470
REMARK  193  A    between atoms: _470  and  _471
REMARK  194  A    between atoms: _470  and  _473
REMARK  195  A    between atoms: _473  and  _474
REMARK  196  A    between atoms: _478  and  _479
REMARK  197  A    between atoms: _484  and  _486
REMARK  198  A    between atoms: _486  and  _487
REMARK  199  A    between atoms: _486  and  _489
REMARK  200  A    between atoms: _492  and  _494
REMARK  201  A    between atoms: _494  and  _495
REMARK  202  A    between atoms: _494  and  _497
REMARK  203  A    between atoms: _497  and  _498
REMARK  204  A    between atoms: _503  and  _505
REMARK  205  A    between atoms: _505  and  _506
REMARK  206  A    between atoms: _505  and  _508
REMARK  207  A    between atoms: _508  and  _509
REMARK  208  A    between atoms: _512  and  _514
REMARK  209  A    between atoms: _514  and  _515
REMARK  210  A    between atoms: _514  and  _517
REMARK  211  A    between atoms: _517  and  _518
REMARK  212  A    between atoms: _521  and  _523
REMARK  213  A    between atoms: _523  and  _524
REMARK  214  A    between atoms: _526  and  _528
REMARK  215  A    between atoms: _528  and  _529
REMARK  216  A    between atoms: _528  and  _531
REMARK  217  A    between atoms: _531  and  _532
REMARK  218  A    between atoms: _532  and  _533
REMARK  219  A    between atoms: _533  and  _534
REMARK                            x       y       z     vdW  Elec       q    Type
REMARK                         _______ _______ _______ _____ _____    ______ ____
ROOT
ATOM      1  O   HOH     1      13.885  27.307  11.514  0.00  0.00    +0.000 OA
ENDROOT
TORSDOF 0
REMARK  Name = ../refined-set-2016/2o4p/2o4p_pocket.pdb
REMARK  219 active torsions:
REMARK  status: ('A' for Active; 'I' for Inactive)
REMARK    1  A    between atoms: _1  and  _3
REMARK    2  A    between atoms: _3  and  _4
REMARK    3  A    between atoms: _3  and  _6
REMARK    4  A    between atoms: _6  and  _7
REMARK    5  A    between atoms: _7  and  _8
REMARK    6  A    between atoms: _8  and  _9
REMARK    7  A    between atoms: _18  and  _20
REMARK    8  A    between atoms: _20  and  _21
REMARK    9  A    between atoms: _20  and  _23
REMARK   10  A    between atoms: _23  and  _24
REMARK   11  A    between atoms: _27  and  _29
REMARK   12  A    between atoms: _29  and  _30
REMARK   13  A    between atoms: _29  and  _32
REMARK   14  A    between atoms: _32  and  _33
REMARK   15  A    between atoms: _36  and  _38
REMARK   16  A    between atoms: _38  and  _39
REMARK   17  A    between atoms: _38  and  _41
REMARK   18  A    between atoms: _41  and  _42
REMARK   19  A    between atoms: _45  and  _47
REMARK   20  A    between atoms: _47  and  _48
REMARK   21  A    between atoms: _47  and  _50
REMARK   22  A    between atoms: _50  and  _51
REMARK   23  A    between atoms: _54  and  _56
REMARK   24  A    between atoms: _56  and  _57
REMARK   25  A    between atoms: _56  and  _59
REMARK   26  A    between atoms: _59  and  _60
REMARK   27  A    between atoms: _63  and  _65
REMARK   28  A    between atoms: _65  and  _66
REMARK   29  A    between atoms: _68  and  _70
REMARK   30  A    between atoms: _70  and  _71
REMARK   31  A    between atoms: _74  and  _76
REMARK   32  A    between atoms: _76  and  _77
REMARK   33  A    between atoms: _76  and  _79
REMARK   34  A    between atoms: _79  and  _80
REMARK   35  A    between atoms: _83  and  _85
REMARK   36  A    between atoms: _85  and  _86
REMARK   37  A    between atoms: _85  and  _88
REMARK   38  A    between atoms: _88  and  _89
REMARK   39  A    between atoms: _92  and  _94
REMARK   40  A    between atoms: _94  and  _95
REMARK   41  A    between atoms: _94  and  _97
REMARK   42  A    between atoms: _97  and  _98
REMARK   43  A    between atoms: _101  and  _103
REMARK   44  A    between atoms: _103  and  _104
REMARK   45  A    between atoms: _103  and  _106
REMARK   46  A    between atoms: _109  and  _111
REMARK   47  A    between atoms: _111  and  _112
REMARK   48  A    between atoms: _111  and  _114
REMARK   49  A    between atoms: _114  and  _115
REMARK   50  A    between atoms: _115  and  _116
REMARK   51  A    between atoms: _116  and  _117
REMARK   52  A    between atoms: _117  and  _118
REMARK   53  A    between atoms: _122  and  _124
REMARK   54  A    between atoms: _124  and  _125
REMARK   55  A    between atoms: _124  and  _127
REMARK   56  A    between atoms: _127  and  _128
REMARK   57  A    between atoms: _128  and  _129
REMARK   58  A    between atoms: _131  and  _133
REMARK   59  A    between atoms: _133  and  _134
REMARK   60  A    between atoms: _133  and  _136
REMARK   61  A    between atoms: _136  and  _137
REMARK   62  A    between atoms: _140  and  _142
REMARK   63  A    between atoms: _142  and  _143
REMARK   64  A    between atoms: _145  and  _147
REMARK   65  A    between atoms: _147  and  _148
REMARK   66  A    between atoms: _150  and  _152
REMARK   67  A    between atoms: _152  and  _153
REMARK   68  A    between atoms: _152  and  _155
REMARK   69  A    between atoms: _155  and  _156
REMARK   70  A    between atoms: _159  and  _161
REMARK   71  A    between atoms: _161  and  _162
REMARK   72  A    between atoms: _164  and  _166
REMARK   73  A    between atoms: _166  and  _167
REMARK   74  A    between atoms: _169  and  _171
REMARK   75  A    between atoms: _171  and  _172
REMARK   76  A    between atoms: _171  and  _174
REMARK   77  A    between atoms: _174  and  _175
REMARK   78  A    between atoms: _181  and  _183
REMARK   79  A    between atoms: _183  and  _184
REMARK   80  A    between atoms: _183  and  _186
REMARK   81  A    between atoms: _186  and  _187
REMARK   82  A    between atoms: _190  and  _192
REMARK   83  A    between atoms: _192  and  _193
REMARK   84  A    between atoms: _192  and  _195
REMARK   85  A    between atoms: _195  and  _196
REMARK   86  A    between atoms: _199  and  _201
REMARK   87  A    between atoms: _201  and  _202
REMARK   88  A    between atoms: _201  and  _204
REMARK   89  A    between atoms: _204  and  _205
REMARK   90  A    between atoms: _209  and  _210
REMARK   91  A    between atoms: _215  and  _217
REMARK   92  A    between atoms: _217  and  _218
REMARK   93  A    between atoms: _217  and  _220
REMARK   94  A    between atoms: _223  and  _225
REMARK   95  A    between atoms: _225  and  _226
REMARK   96  A    between atoms: _225  and  _228
REMARK   97  A    between atoms: _228  and  _229
REMARK   98  A    between atoms: _234  and  _236
REMARK   99  A    between atoms: _236  and  _237
REMARK  100  A    between atoms: _236  and  _239
REMARK  101  A    between atoms: _239  and  _240
REMARK  102  A    between atoms: _243  and  _245
REMARK  103  A    between atoms: _245  and  _246
REMARK  104  A    between atoms: _245  and  _248
REMARK  105  A    between atoms: _248  and  _249
REMARK  106  A    between atoms: _252  and  _254
REMARK  107  A    between atoms: _254  and  _255
REMARK  108  A    between atoms: _257  and  _259
REMARK  109  A    between atoms: _259  and  _260
REMARK  110  A    between atoms: _259  and  _262
REMARK  111  A    between atoms: _262  and  _263
REMARK  112  A    between atoms: _263  and  _264
REMARK  113  A    between atoms: _264  and  _265
REMARK  114  A    between atoms: _274  and  _276
REMARK  115  A    between atoms: _276  and  _277
REMARK  116  A    between atoms: _276  and  _279
REMARK  117  A    between atoms: _279  and  _280
REMARK  118  A    between atoms: _285  and  _287
REMARK  119  A    between atoms: _287  and  _288
REMARK  120  A    between atoms: _287  and  _290
REMARK  121  A    between atoms: _290  and  _291
REMARK  122  A    between atoms: _291  and  _292
REMARK  123  A    between atoms: _292  and  _293
REMARK  124  A    between atoms: _303  and  _304
REMARK  125  A    between atoms: _309  and  _311
REMARK  126  A    between atoms: _311  and  _312
REMARK  127  A    between atoms: _311  and  _314
REMARK  128  A    between atoms: _314  and  _315
REMARK  129  A    between atoms: _318  and  _320
REMARK  130  A    between atoms: _320  and  _321
REMARK  131  A    between atoms: _320  and  _323
REMARK  132  A    between atoms: _323  and  _324
REMARK  133  A    between atoms: _327  and  _329
REMARK  134  A    between atoms: _329  and  _330
REMARK  135  A    between atoms: _329  and  _332
REMARK  136  A    between atoms: _332  and  _333
REMARK  137  A    between atoms: _336  and  _338
REMARK  138  A    between atoms: _338  and  _339
REMARK  139  A    between atoms: _338  and  _341
REMARK  140  A    between atoms: _341  and  _342
REMARK  141  A    between atoms: _345  and  _347
REMARK  142  A    between atoms: _347  and  _348
REMARK  143  A    between atoms: _347  and  _350
REMARK  144  A    between atoms: _350  and  _351
REMARK  145  A    between atoms: _354  and  _356
REMARK  146  A    between atoms: _356  and  _357
REMARK  147  A    between atoms: _359  and  _361
REMARK  148  A    between atoms: _361  and  _362
REMARK  149  A    between atoms: _365  and  _367
REMARK  150  A    between atoms: _367  and  _368
REMARK  151  A    between atoms: _367  and  _370
REMARK  152  A    between atoms: _370  and  _371
REMARK  153  A    between atoms: _374  and  _376
REMARK  154  A    between atoms: _376  and  _377
REMARK  155  A    between atoms: _376  and  _379
REMARK  156  A    between atoms: _379  and  _380
REMARK  157  A    between atoms: _383  and  _385
REMARK  158  A    between atoms: _385  and  _386
REMARK  159  A    between atoms: _385  and  _388
REMARK  160  A    between atoms: _388  and  _389
REMARK  161  A    between atoms: _392  and  _394
REMARK  162  A    between atoms: _394  and  _395
REMARK  163  A    between atoms: _394  and  _397
REMARK  164  A    between atoms: _400  and  _402
REMARK  165  A    between atoms: _402  and  _403
REMARK  166  A    between atoms: _402  and  _405
REMARK  167  A    between atoms: _405  and  _406
REMARK  168  A    between atoms: _409  and  _411
REMARK  169  A    between atoms: _411  and  _412
REMARK  170  A    between atoms: _414  and  _416
REMARK  171  A    between atoms: _416  and  _417
REMARK  172  A    between atoms: _419  and  _421
REMARK  173  A    between atoms: _421  and  _422
REMARK  174  A    between atoms: _421  and  _424
REMARK  175  A    between atoms: _424  and  _425
REMARK  176  A    between atoms: _428  and  _430
REMARK  177  A    between atoms: _430  and  _431
REMARK  178  A    between atoms: _433  and  _435
REMARK  179  A    between atoms: _435  and  _436
REMARK  180  A    between atoms: _438  and  _440
REMARK  181  A    between atoms: _440  and  _441
REMARK  182  A    between atoms: _440  and  _443
REMARK  183  A    between atoms: _443  and  _444
REMARK  184  A    between atoms: _450  and  _452
REMARK  185  A    between atoms: _452  and  _453
REMARK  186  A    between atoms: _452  and  _455
REMARK  187  A    between atoms: _455  and  _456
REMARK  188  A    between atoms: _459  and  _461
REMARK  189  A    between atoms: _461  and  _462
REMARK  190  A    between atoms: _461  and  _464
REMARK  191  A    between atoms: _464  and  _465
REMARK  192  A    between atoms: _468  and  _470
REMARK  193  A    between atoms: _470  and  _471
REMARK  194  A    between atoms: _470  and  _473
REMARK  195  A    between atoms: _473  and  _474
REMARK  196  A    between atoms: _478  and  _479
REMARK  197  A    between atoms: _484  and  _486
REMARK  198  A    between atoms: _486  and  _487
REMARK  199  A    between atoms: _486  and  _489
REMARK  200  A    between atoms: _492  and  _494
REMARK  201  A    between atoms: _494  and  _495
REMARK  202  A    between atoms: _494  and  _497
REMARK  203  A    between atoms: _497  and  _498
REMARK  204  A    between atoms: _503  and  _505
REMARK  205  A    between atoms: _505  and  _506
REMARK  206  A    between atoms: _505  and  _508
REMARK  207  A    between atoms: _508  and  _509
REMARK  208  A    between atoms: _512  and  _514
REMARK  209  A    between atoms: _514  and  _515
REMARK  210  A    between atoms: _514  and  _517
REMARK  211  A    between atoms: _517  and  _518
REMARK  212  A    between atoms: _521  and  _523
REMARK  213  A    between atoms: _523  and  _524
REMARK  214  A    between atoms: _526  and  _528
REMARK  215  A    between atoms: _528  and  _529
REMARK  216  A    between atoms: _528  and  _531
REMARK  217  A    between atoms: _531  and  _532
REMARK  218  A    between atoms: _532  and  _533
REMARK  219  A    between atoms: _533  and  _534
REMARK                            x       y       z     vdW  Elec       q    Type
REMARK                         _______ _______ _______ _____ _____    ______ ____
ROOT
ATOM      1  O   HOH     1      20.937  21.371  17.080  0.00  0.00    +0.000 OA
ENDROOT
TORSDOF 0
REMARK  Name = ../refined-set-2016/2o4p/2o4p_pocket.pdb
REMARK  219 active torsions:
REMARK  status: ('A' for Active; 'I' for Inactive)
REMARK    1  A    between atoms: _1  and  _3
REMARK    2  A    between atoms: _3  and  _4
REMARK    3  A    between atoms: _3  and  _6
REMARK    4  A    between atoms: _6  and  _7
REMARK    5  A    between atoms: _7  and  _8
REMARK    6  A    between atoms: _8  and  _9
REMARK    7  A    between atoms: _18  and  _20
REMARK    8  A    between atoms: _20  and  _21
REMARK    9  A    between atoms: _20  and  _23
REMARK   10  A    between atoms: _23  and  _24
REMARK   11  A    between atoms: _27  and  _29
REMARK   12  A    between atoms: _29  and  _30
REMARK   13  A    between atoms: _29  and  _32
REMARK   14  A    between atoms: _32  and  _33
REMARK   15  A    between atoms: _36  and  _38
REMARK   16  A    between atoms: _38  and  _39
REMARK   17  A    between atoms: _38  and  _41
REMARK   18  A    between atoms: _41  and  _42
REMARK   19  A    between atoms: _45  and  _47
REMARK   20  A    between atoms: _47  and  _48
REMARK   21  A    between atoms: _47  and  _50
REMARK   22  A    between atoms: _50  and  _51
REMARK   23  A    between atoms: _54  and  _56
REMARK   24  A    between atoms: _56  and  _57
REMARK   25  A    between atoms: _56  and  _59
REMARK   26  A    between atoms: _59  and  _60
REMARK   27  A    between atoms: _63  and  _65
REMARK   28  A    between atoms: _65  and  _66
REMARK   29  A    between atoms: _68  and  _70
REMARK   30  A    between atoms: _70  and  _71
REMARK   31  A    between atoms: _74  and  _76
REMARK   32  A    between atoms: _76  and  _77
REMARK   33  A    between atoms: _76  and  _79
REMARK   34  A    between atoms: _79  and  _80
REMARK   35  A    between atoms: _83  and  _85
REMARK   36  A    between atoms: _85  and  _86
REMARK   37  A    between atoms: _85  and  _88
REMARK   38  A    between atoms: _88  and  _89
REMARK   39  A    between atoms: _92  and  _94
REMARK   40  A    between atoms: _94  and  _95
REMARK   41  A    between atoms: _94  and  _97
REMARK   42  A    between atoms: _97  and  _98
REMARK   43  A    between atoms: _101  and  _103
REMARK   44  A    between atoms: _103  and  _104
REMARK   45  A    between atoms: _103  and  _106
REMARK   46  A    between atoms: _109  and  _111
REMARK   47  A    between atoms: _111  and  _112
REMARK   48  A    between atoms: _111  and  _114
REMARK   49  A    between atoms: _114  and  _115
REMARK   50  A    between atoms: _115  and  _116
REMARK   51  A    between atoms: _116  and  _117
REMARK   52  A    between atoms: _117  and  _118
REMARK   53  A    between atoms: _122  and  _124
REMARK   54  A    between atoms: _124  and  _125
REMARK   55  A    between atoms: _124  and  _127
REMARK   56  A    between atoms: _127  and  _128
REMARK   57  A    between atoms: _128  and  _129
REMARK   58  A    between atoms: _131  and  _133
REMARK   59  A    between atoms: _133  and  _134
REMARK   60  A    between atoms: _133  and  _136
REMARK   61  A    between atoms: _136  and  _137
REMARK   62  A    between atoms: _140  and  _142
REMARK   63  A    between atoms: _142  and  _143
REMARK   64  A    between atoms: _145  and  _147
REMARK   65  A    between atoms: _147  and  _148
REMARK   66  A    between atoms: _150  and  _152
REMARK   67  A    between atoms: _152  and  _153
REMARK   68  A    between atoms: _152  and  _155
REMARK   69  A    between atoms: _155  and  _156
REMARK   70  A    between atoms: _159  and  _161
REMARK   71  A    between atoms: _161  and  _162
REMARK   72  A    between atoms: _164  and  _166
REMARK   73  A    between atoms: _166  and  _167
REMARK   74  A    between atoms: _169  and  _171
REMARK   75  A    between atoms: _171  and  _172
REMARK   76  A    between atoms: _171  and  _174
REMARK   77  A    between atoms: _174  and  _175
REMARK   78  A    between atoms: _181  and  _183
REMARK   79  A    between atoms: _183  and  _184
REMARK   80  A    between atoms: _183  and  _186
REMARK   81  A    between atoms: _186  and  _187
REMARK   82  A    between atoms: _190  and  _192
REMARK   83  A    between atoms: _192  and  _193
REMARK   84  A    between atoms: _192  and  _195
REMARK   85  A    between atoms: _195  and  _196
REMARK   86  A    between atoms: _199  and  _201
REMARK   87  A    between atoms: _201  and  _202
REMARK   88  A    between atoms: _201  and  _204
REMARK   89  A    between atoms: _204  and  _205
REMARK   90  A    between atoms: _209  and  _210
REMARK   91  A    between atoms: _215  and  _217
REMARK   92  A    between atoms: _217  and  _218
REMARK   93  A    between atoms: _217  and  _220
REMARK   94  A    between atoms: _223  and  _225
REMARK   95  A    between atoms: _225  and  _226
REMARK   96  A    between atoms: _225  and  _228
REMARK   97  A    between atoms: _228  and  _229
REMARK   98  A    between atoms: _234  and  _236
REMARK   99  A    between atoms: _236  and  _237
REMARK  100  A    between atoms: _236  and  _239
REMARK  101  A    between atoms: _239  and  _240
REMARK  102  A    between atoms: _243  and  _245
REMARK  103  A    between atoms: _245  and  _246
REMARK  104  A    between atoms: _245  and  _248
REMARK  105  A    between atoms: _248  and  _249
REMARK  106  A    between atoms: _252  and  _254
REMARK  107  A    between atoms: _254  and  _255
REMARK  108  A    between atoms: _257  and  _259
REMARK  109  A    between atoms: _259  and  _260
REMARK  110  A    between atoms: _259  and  _262
REMARK  111  A    between atoms: _262  and  _263
REMARK  112  A    between atoms: _263  and  _264
REMARK  113  A    between atoms: _264  and  _265
REMARK  114  A    between atoms: _274  and  _276
REMARK  115  A    between atoms: _276  and  _277
REMARK  116  A    between atoms: _276  and  _279
REMARK  117  A    between atoms: _279  and  _280
REMARK  118  A    between atoms: _285  and  _287
REMARK  119  A    between atoms: _287  and  _288
REMARK  120  A    between atoms: _287  and  _290
REMARK  121  A    between atoms: _290  and  _291
REMARK  122  A    between atoms: _291  and  _292
REMARK  123  A    between atoms: _292  and  _293
REMARK  124  A    between atoms: _303  and  _304
REMARK  125  A    between atoms: _309  and  _311
REMARK  126  A    between atoms: _311  and  _312
REMARK  127  A    between atoms: _311  and  _314
REMARK  128  A    between atoms: _314  and  _315
REMARK  129  A    between atoms: _318  and  _320
REMARK  130  A    between atoms: _320  and  _321
REMARK  131  A    between atoms: _320  and  _323
REMARK  132  A    between atoms: _323  and  _324
REMARK  133  A    between atoms: _327  and  _329
REMARK  134  A    between atoms: _329  and  _330
REMARK  135  A    between atoms: _329  and  _332
REMARK  136  A    between atoms: _332  and  _333
REMARK  137  A    between atoms: _336  and  _338
REMARK  138  A    between atoms: _338  and  _339
REMARK  139  A    between atoms: _338  and  _341
REMARK  140  A    between atoms: _341  and  _342
REMARK  141  A    between atoms: _345  and  _347
REMARK  142  A    between atoms: _347  and  _348
REMARK  143  A    between atoms: _347  and  _350
REMARK  144  A    between atoms: _350  and  _351
REMARK  145  A    between atoms: _354  and  _356
REMARK  146  A    between atoms: _356  and  _357
REMARK  147  A    between atoms: _359  and  _361
REMARK  148  A    between atoms: _361  and  _362
REMARK  149  A    between atoms: _365  and  _367
REMARK  150  A    between atoms: _367  and  _368
REMARK  151  A    between atoms: _367  and  _370
REMARK  152  A    between atoms: _370  and  _371
REMARK  153  A    between atoms: _374  and  _376
REMARK  154  A    between atoms: _376  and  _377
REMARK  155  A    between atoms: _376  and  _379
REMARK  156  A    between atoms: _379  and  _380
REMARK  157  A    between atoms: _383  and  _385
REMARK  158  A    between atoms: _385  and  _386
REMARK  159  A    between atoms: _385  and  _388
REMARK  160  A    between atoms: _388  and  _389
REMARK  161  A    between atoms: _392  and  _394
REMARK  162  A    between atoms: _394  and  _395
REMARK  163  A    between atoms: _394  and  _397
REMARK  164  A    between atoms: _400  and  _402
REMARK  165  A    between atoms: _402  and  _403
REMARK  166  A    between atoms: _402  and  _405
REMARK  167  A    between atoms: _405  and  _406
REMARK  168  A    between atoms: _409  and  _411
REMARK  169  A    between atoms: _411  and  _412
REMARK  170  A    between atoms: _414  and  _416
REMARK  171  A    between atoms: _416  and  _417
REMARK  172  A    between atoms: _419  and  _421
REMARK  173  A    between atoms: _421  and  _422
REMARK  174  A    between atoms: _421  and  _424
REMARK  175  A    between atoms: _424  and  _425
REMARK  176  A    between atoms: _428  and  _430
REMARK  177  A    between atoms: _430  and  _431
REMARK  178  A    between atoms: _433  and  _435
REMARK  179  A    between atoms: _435  and  _436
REMARK  180  A    between atoms: _438  and  _440
REMARK  181  A    between atoms: _440  and  _441
REMARK  182  A    between atoms: _440  and  _443
REMARK  183  A    between atoms: _443  and  _444
REMARK  184  A    between atoms: _450  and  _452
REMARK  185  A    between atoms: _452  and  _453
REMARK  186  A    between atoms: _452  and  _455
REMARK  187  A    between atoms: _455  and  _456
REMARK  188  A    between atoms: _459  and  _461
REMARK  189  A    between atoms: _461  and  _462
REMARK  190  A    between atoms: _461  and  _464
REMARK  191  A    between atoms: _464  and  _465
REMARK  192  A    between atoms: _468  and  _470
REMARK  193  A    between atoms: _470  and  _471
REMARK  194  A    between atoms: _470  and  _473
REMARK  195  A    between atoms: _473  and  _474
REMARK  196  A    between atoms: _478  and  _479
REMARK  197  A    between atoms: _484  and  _486
REMARK  198  A    between atoms: _486  and  _487
REMARK  199  A    between atoms: _486  and  _489
REMARK  200  A    between atoms: _492  and  _494
REMARK  201  A    between atoms: _494  and  _495
REMARK  202  A    between atoms: _494  and  _497
REMARK  203  A    between atoms: _497  and  _498
REMARK  204  A    between atoms: _503  and  _505
REMARK  205  A    between atoms: _505  and  _506
REMARK  206  A    between atoms: _505  and  _508
REMARK  207  A    between atoms: _508  and  _509
REMARK  208  A    between atoms: _512  and  _514
REMARK  209  A    between atoms: _514  and  _515
REMARK  210  A    between atoms: _514  and  _517
REMARK  211  A    between atoms: _517  and  _518
REMARK  212  A    between atoms: _521  and  _523
REMARK  213  A    between atoms: _523  and  _524
REMARK  214  A    between atoms: _526  and  _528
REMARK  215  A    between atoms: _528  and  _529
REMARK  216  A    between atoms: _528  and  _531
REMARK  217  A    between atoms: _531  and  _532
REMARK  218  A    between atoms: _532  and  _533
REMARK  219  A    between atoms: _533  and  _534
REMARK                            x       y       z     vdW  Elec       q    Type
REMARK                         _______ _______ _______ _____ _____    ______ ____
ROOT
ATOM      1  O   HOH     1      18.269  25.666  20.167  0.00  0.00    +0.000 OA
ENDROOT
TORSDOF 0
REMARK  Name = ../refined-set-2016/2o4p/2o4p_pocket.pdb
REMARK  219 active torsions:
REMARK  status: ('A' for Active; 'I' for Inactive)
REMARK    1  A    between atoms: _1  and  _3
REMARK    2  A    between atoms: _3  and  _4
REMARK    3  A    between atoms: _3  and  _6
REMARK    4  A    between atoms: _6  and  _7
REMARK    5  A    between atoms: _7  and  _8
REMARK    6  A    between atoms: _8  and  _9
REMARK    7  A    between atoms: _18  and  _20
REMARK    8  A    between atoms: _20  and  _21
REMARK    9  A    between atoms: _20  and  _23
REMARK   10  A    between atoms: _23  and  _24
REMARK   11  A    between atoms: _27  and  _29
REMARK   12  A    between atoms: _29  and  _30
REMARK   13  A    between atoms: _29  and  _32
REMARK   14  A    between atoms: _32  and  _33
REMARK   15  A    between atoms: _36  and  _38
REMARK   16  A    between atoms: _38  and  _39
REMARK   17  A    between atoms: _38  and  _41
REMARK   18  A    between atoms: _41  and  _42
REMARK   19  A    between atoms: _45  and  _47
REMARK   20  A    between atoms: _47  and  _48
REMARK   21  A    between atoms: _47  and  _50
REMARK   22  A    between atoms: _50  and  _51
REMARK   23  A    between atoms: _54  and  _56
REMARK   24  A    between atoms: _56  and  _57
REMARK   25  A    between atoms: _56  and  _59
REMARK   26  A    between atoms: _59  and  _60
REMARK   27  A    between atoms: _63  and  _65
REMARK   28  A    between atoms: _65  and  _66
REMARK   29  A    between atoms: _68  and  _70
REMARK   30  A    between atoms: _70  and  _71
REMARK   31  A    between atoms: _74  and  _76
REMARK   32  A    between atoms: _76  and  _77
REMARK   33  A    between atoms: _76  and  _79
REMARK   34  A    between atoms: _79  and  _80
REMARK   35  A    between atoms: _83  and  _85
REMARK   36  A    between atoms: _85  and  _86
REMARK   37  A    between atoms: _85  and  _88
REMARK   38  A    between atoms: _88  and  _89
REMARK   39  A    between atoms: _92  and  _94
REMARK   40  A    between atoms: _94  and  _95
REMARK   41  A    between atoms: _94  and  _97
REMARK   42  A    between atoms: _97  and  _98
REMARK   43  A    between atoms: _101  and  _103
REMARK   44  A    between atoms: _103  and  _104
REMARK   45  A    between atoms: _103  and  _106
REMARK   46  A    between atoms: _109  and  _111
REMARK   47  A    between atoms: _111  and  _112
REMARK   48  A    between atoms: _111  and  _114
REMARK   49  A    between atoms: _114  and  _115
REMARK   50  A    between atoms: _115  and  _116
REMARK   51  A    between atoms: _116  and  _117
REMARK   52  A    between atoms: _117  and  _118
REMARK   53  A    between atoms: _122  and  _124
REMARK   54  A    between atoms: _124  and  _125
REMARK   55  A    between atoms: _124  and  _127
REMARK   56  A    between atoms: _127  and  _128
REMARK   57  A    between atoms: _128  and  _129
REMARK   58  A    between atoms: _131  and  _133
REMARK   59  A    between atoms: _133  and  _134
REMARK   60  A    between atoms: _133  and  _136
REMARK   61  A    between atoms: _136  and  _137
REMARK   62  A    between atoms: _140  and  _142
REMARK   63  A    between atoms: _142  and  _143
REMARK   64  A    between atoms: _145  and  _147
REMARK   65  A    between atoms: _147  and  _148
REMARK   66  A    between atoms: _150  and  _152
REMARK   67  A    between atoms: _152  and  _153
REMARK   68  A    between atoms: _152  and  _155
REMARK   69  A    between atoms: _155  and  _156
REMARK   70  A    between atoms: _159  and  _161
REMARK   71  A    between atoms: _161  and  _162
REMARK   72  A    between atoms: _164  and  _166
REMARK   73  A    between atoms: _166  and  _167
REMARK   74  A    between atoms: _169  and  _171
REMARK   75  A    between atoms: _171  and  _172
REMARK   76  A    between atoms: _171  and  _174
REMARK   77  A    between atoms: _174  and  _175
REMARK   78  A    between atoms: _181  and  _183
REMARK   79  A    between atoms: _183  and  _184
REMARK   80  A    between atoms: _183  and  _186
REMARK   81  A    between atoms: _186  and  _187
REMARK   82  A    between atoms: _190  and  _192
REMARK   83  A    between atoms: _192  and  _193
REMARK   84  A    between atoms: _192  and  _195
REMARK   85  A    between atoms: _195  and  _196
REMARK   86  A    between atoms: _199  and  _201
REMARK   87  A    between atoms: _201  and  _202
REMARK   88  A    between atoms: _201  and  _204
REMARK   89  A    between atoms: _204  and  _205
REMARK   90  A    between atoms: _209  and  _210
REMARK   91  A    between atoms: _215  and  _217
REMARK   92  A    between atoms: _217  and  _218
REMARK   93  A    between atoms: _217  and  _220
REMARK   94  A    between atoms: _223  and  _225
REMARK   95  A    between atoms: _225  and  _226
REMARK   96  A    between atoms: _225  and  _228
REMARK   97  A    between atoms: _228  and  _229
REMARK   98  A    between atoms: _234  and  _236
REMARK   99  A    between atoms: _236  and  _237
REMARK  100  A    between atoms: _236  and  _239
REMARK  101  A    between atoms: _239  and  _240
REMARK  102  A    between atoms: _243  and  _245
REMARK  103  A    between atoms: _245  and  _246
REMARK  104  A    between atoms: _245  and  _248
REMARK  105  A    between atoms: _248  and  _249
REMARK  106  A    between atoms: _252  and  _254
REMARK  107  A    between atoms: _254  and  _255
REMARK  108  A    between atoms: _257  and  _259
REMARK  109  A    between atoms: _259  and  _260
REMARK  110  A    between atoms: _259  and  _262
REMARK  111  A    between atoms: _262  and  _263
REMARK  112  A    between atoms: _263  and  _264
REMARK  113  A    between atoms: _264  and  _265
REMARK  114  A    between atoms: _274  and  _276
REMARK  115  A    between atoms: _276  and  _277
REMARK  116  A    between atoms: _276  and  _279
REMARK  117  A    between atoms: _279  and  _280
REMARK  118  A    between atoms: _285  and  _287
REMARK  119  A    between atoms: _287  and  _288
REMARK  120  A    between atoms: _287  and  _290
REMARK  121  A    between atoms: _290  and  _291
REMARK  122  A    between atoms: _291  and  _292
REMARK  123  A    between atoms: _292  and  _293
REMARK  124  A    between atoms: _303  and  _304
REMARK  125  A    between atoms: _309  and  _311
REMARK  126  A    between atoms: _311  and  _312
REMARK  127  A    between atoms: _311  and  _314
REMARK  128  A    between atoms: _314  and  _315
REMARK  129  A    between atoms: _318  and  _320
REMARK  130  A    between atoms: _320  and  _321
REMARK  131  A    between atoms: _320  and  _323
REMARK  132  A    between atoms: _323  and  _324
REMARK  133  A    between atoms: _327  and  _329
REMARK  134  A    between atoms: _329  and  _330
REMARK  135  A    between atoms: _329  and  _332
REMARK  136  A    between atoms: _332  and  _333
REMARK  137  A    between atoms: _336  and  _338
REMARK  138  A    between atoms: _338  and  _339
REMARK  139  A    between atoms: _338  and  _341
REMARK  140  A    between atoms: _341  and  _342
REMARK  141  A    between atoms: _345  and  _347
REMARK  142  A    between atoms: _347  and  _348
REMARK  143  A    between atoms: _347  and  _350
REMARK  144  A    between atoms: _350  and  _351
REMARK  145  A    between atoms: _354  and  _356
REMARK  146  A    between atoms: _356  and  _357
REMARK  147  A    between atoms: _359  and  _361
REMARK  148  A    between atoms: _361  and  _362
REMARK  149  A    between atoms: _365  and  _367
REMARK  150  A    between atoms: _367  and  _368
REMARK  151  A    between atoms: _367  and  _370
REMARK  152  A    between atoms: _370  and  _371
REMARK  153  A    between atoms: _374  and  _376
REMARK  154  A    between atoms: _376  and  _377
REMARK  155  A    between atoms: _376  and  _379
REMARK  156  A    between atoms: _379  and  _380
REMARK  157  A    between atoms: _383  and  _385
REMARK  158  A    between atoms: _385  and  _386
REMARK  159  A    between atoms: _385  and  _388
REMARK  160  A    between atoms: _388  and  _389
REMARK  161  A    between atoms: _392  and  _394
REMARK  162  A    between atoms: _394  and  _395
REMARK  163  A    between atoms: _394  and  _397
REMARK  164  A    between atoms: _400  and  _402
REMARK  165  A    between atoms: _402  and  _403
REMARK  166  A    between atoms: _402  and  _405
REMARK  167  A    between atoms: _405  and  _406
REMARK  168  A    between atoms: _409  and  _411
REMARK  169  A    between atoms: _411  and  _412
REMARK  170  A    between atoms: _414  and  _416
REMARK  171  A    between atoms: _416  and  _417
REMARK  172  A    between atoms: _419  and  _421
REMARK  173  A    between atoms: _421  and  _422
REMARK  174  A    between atoms: _421  and  _424
REMARK  175  A    between atoms: _424  and  _425
REMARK  176  A    between atoms: _428  and  _430
REMARK  177  A    between atoms: _430  and  _431
REMARK  178  A    between atoms: _433  and  _435
REMARK  179  A    between atoms: _435  and  _436
REMARK  180  A    between atoms: _438  and  _440
REMARK  181  A    between atoms: _440  and  _441
REMARK  182  A    between atoms: _440  and  _443
REMARK  183  A    between atoms: _443  and  _444
REMARK  184  A    between atoms: _450  and  _452
REMARK  185  A    between atoms: _452  and  _453
REMARK  186  A    between atoms: _452  and  _455
REMARK  187  A    between atoms: _455  and  _456
REMARK  188  A    between atoms: _459  and  _461
REMARK  189  A    between atoms: _461  and  _462
REMARK  190  A    between atoms: _461  and  _464
REMARK  191  A    between atoms: _464  and  _465
REMARK  192  A    between atoms: _468  and  _470
REMARK  193  A    between atoms: _470  and  _471
REMARK  194  A    between atoms: _470  and  _473
REMARK  195  A    between atoms: _473  and  _474
REMARK  196  A    between atoms: _478  and  _479
REMARK  197  A    between atoms: _484  and  _486
REMARK  198  A    between atoms: _486  and  _487
REMARK  199  A    between atoms: _486  and  _489
REMARK  200  A    between atoms: _492  and  _494
REMARK  201  A    between atoms: _494  and  _495
REMARK  202  A    between atoms: _494  and  _497
REMARK  203  A    between atoms: _497  and  _498
REMARK  204  A    between atoms: _503  and  _505
REMARK  205  A    between atoms: _505  and  _506
REMARK  206  A    between atoms: _505  and  _508
REMARK  207  A    between atoms: _508  and  _509
REMARK  208  A    between atoms: _512  and  _514
REMARK  209  A    between atoms: _514  and  _515
REMARK  210  A    between atoms: _514  and  _517
REMARK  211  A    between atoms: _517  and  _518
REMARK  212  A    between atoms: _521  and  _523
REMARK  213  A    between atoms: _523  and  _524
REMARK  214  A    between atoms: _526  and  _528
REMARK  215  A    between atoms: _528  and  _529
REMARK  216  A    between atoms: _528  and  _531
REMARK  217  A    between atoms: _531  and  _532
REMARK  218  A    between atoms: _532  and  _533
REMARK  219  A    between atoms: _533  and  _534
REMARK                            x       y       z     vdW  Elec       q    Type
REMARK                         _______ _______ _______ _____ _____    ______ ____
ROOT
ATOM      1  O   HOH     1      18.641  28.414  12.660  0.00  0.00    +0.000 OA
ENDROOT
TORSDOF 0
REMARK  Name = ../refined-set-2016/2o4p/2o4p_pocket.pdb
REMARK  219 active torsions:
REMARK  status: ('A' for Active; 'I' for Inactive)
REMARK    1  A    between atoms: _1  and  _3
REMARK    2  A    between atoms: _3  and  _4
REMARK    3  A    between atoms: _3  and  _6
REMARK    4  A    between atoms: _6  and  _7
REMARK    5  A    between atoms: _7  and  _8
REMARK    6  A    between atoms: _8  and  _9
REMARK    7  A    between atoms: _18  and  _20
REMARK    8  A    between atoms: _20  and  _21
REMARK    9  A    between atoms: _20  and  _23
REMARK   10  A    between atoms: _23  and  _24
REMARK   11  A    between atoms: _27  and  _29
REMARK   12  A    between atoms: _29  and  _30
REMARK   13  A    between atoms: _29  and  _32
REMARK   14  A    between atoms: _32  and  _33
REMARK   15  A    between atoms: _36  and  _38
REMARK   16  A    between atoms: _38  and  _39
REMARK   17  A    between atoms: _38  and  _41
REMARK   18  A    between atoms: _41  and  _42
REMARK   19  A    between atoms: _45  and  _47
REMARK   20  A    between atoms: _47  and  _48
REMARK   21  A    between atoms: _47  and  _50
REMARK   22  A    between atoms: _50  and  _51
REMARK   23  A    between atoms: _54  and  _56
REMARK   24  A    between atoms: _56  and  _57
REMARK   25  A    between atoms: _56  and  _59
REMARK   26  A    between atoms: _59  and  _60
REMARK   27  A    between atoms: _63  and  _65
REMARK   28  A    between atoms: _65  and  _66
REMARK   29  A    between atoms: _68  and  _70
REMARK   30  A    between atoms: _70  and  _71
REMARK   31  A    between atoms: _74  and  _76
REMARK   32  A    between atoms: _76  and  _77
REMARK   33  A    between atoms: _76  and  _79
REMARK   34  A    between atoms: _79  and  _80
REMARK   35  A    between atoms: _83  and  _85
REMARK   36  A    between atoms: _85  and  _86
REMARK   37  A    between atoms: _85  and  _88
REMARK   38  A    between atoms: _88  and  _89
REMARK   39  A    between atoms: _92  and  _94
REMARK   40  A    between atoms: _94  and  _95
REMARK   41  A    between atoms: _94  and  _97
REMARK   42  A    between atoms: _97  and  _98
REMARK   43  A    between atoms: _101  and  _103
REMARK   44  A    between atoms: _103  and  _104
REMARK   45  A    between atoms: _103  and  _106
REMARK   46  A    between atoms: _109  and  _111
REMARK   47  A    between atoms: _111  and  _112
REMARK   48  A    between atoms: _111  and  _114
REMARK   49  A    between atoms: _114  and  _115
REMARK   50  A    between atoms: _115  and  _116
REMARK   51  A    between atoms: _116  and  _117
REMARK   52  A    between atoms: _117  and  _118
REMARK   53  A    between atoms: _122  and  _124
REMARK   54  A    between atoms: _124  and  _125
REMARK   55  A    between atoms: _124  and  _127
REMARK   56  A    between atoms: _127  and  _128
REMARK   57  A    between atoms: _128  and  _129
REMARK   58  A    between atoms: _131  and  _133
REMARK   59  A    between atoms: _133  and  _134
REMARK   60  A    between atoms: _133  and  _136
REMARK   61  A    between atoms: _136  and  _137
REMARK   62  A    between atoms: _140  and  _142
REMARK   63  A    between atoms: _142  and  _143
REMARK   64  A    between atoms: _145  and  _147
REMARK   65  A    between atoms: _147  and  _148
REMARK   66  A    between atoms: _150  and  _152
REMARK   67  A    between atoms: _152  and  _153
REMARK   68  A    between atoms: _152  and  _155
REMARK   69  A    between atoms: _155  and  _156
REMARK   70  A    between atoms: _159  and  _161
REMARK   71  A    between atoms: _161  and  _162
REMARK   72  A    between atoms: _164  and  _166
REMARK   73  A    between atoms: _166  and  _167
REMARK   74  A    between atoms: _169  and  _171
REMARK   75  A    between atoms: _171  and  _172
REMARK   76  A    between atoms: _171  and  _174
REMARK   77  A    between atoms: _174  and  _175
REMARK   78  A    between atoms: _181  and  _183
REMARK   79  A    between atoms: _183  and  _184
REMARK   80  A    between atoms: _183  and  _186
REMARK   81  A    between atoms: _186  and  _187
REMARK   82  A    between atoms: _190  and  _192
REMARK   83  A    between atoms: _192  and  _193
REMARK   84  A    between atoms: _192  and  _195
REMARK   85  A    between atoms: _195  and  _196
REMARK   86  A    between atoms: _199  and  _201
REMARK   87  A    between atoms: _201  and  _202
REMARK   88  A    between atoms: _201  and  _204
REMARK   89  A    between atoms: _204  and  _205
REMARK   90  A    between atoms: _209  and  _210
REMARK   91  A    between atoms: _215  and  _217
REMARK   92  A    between atoms: _217  and  _218
REMARK   93  A    between atoms: _217  and  _220
REMARK   94  A    between atoms: _223  and  _225
REMARK   95  A    between atoms: _225  and  _226
REMARK   96  A    between atoms: _225  and  _228
REMARK   97  A    between atoms: _228  and  _229
REMARK   98  A    between atoms: _234  and  _236
REMARK   99  A    between atoms: _236  and  _237
REMARK  100  A    between atoms: _236  and  _239
REMARK  101  A    between atoms: _239  and  _240
REMARK  102  A    between atoms: _243  and  _245
REMARK  103  A    between atoms: _245  and  _246
REMARK  104  A    between atoms: _245  and  _248
REMARK  105  A    between atoms: _248  and  _249
REMARK  106  A    between atoms: _252  and  _254
REMARK  107  A    between atoms: _254  and  _255
REMARK  108  A    between atoms: _257  and  _259
REMARK  109  A    between atoms: _259  and  _260
REMARK  110  A    between atoms: _259  and  _262
REMARK  111  A    between atoms: _262  and  _263
REMARK  112  A    between atoms: _263  and  _264
REMARK  113  A    between atoms: _264  and  _265
REMARK  114  A    between atoms: _274  and  _276
REMARK  115  A    between atoms: _276  and  _277
REMARK  116  A    between atoms: _276  and  _279
REMARK  117  A    between atoms: _279  and  _280
REMARK  118  A    between atoms: _285  and  _287
REMARK  119  A    between atoms: _287  and  _288
REMARK  120  A    between atoms: _287  and  _290
REMARK  121  A    between atoms: _290  and  _291
REMARK  122  A    between atoms: _291  and  _292
REMARK  123  A    between atoms: _292  and  _293
REMARK  124  A    between atoms: _303  and  _304
REMARK  125  A    between atoms: _309  and  _311
REMARK  126  A    between atoms: _311  and  _312
REMARK  127  A    between atoms: _311  and  _314
REMARK  128  A    between atoms: _314  and  _315
REMARK  129  A    between atoms: _318  and  _320
REMARK  130  A    between atoms: _320  and  _321
REMARK  131  A    between atoms: _320  and  _323
REMARK  132  A    between atoms: _323  and  _324
REMARK  133  A    between atoms: _327  and  _329
REMARK  134  A    between atoms: _329  and  _330
REMARK  135  A    between atoms: _329  and  _332
REMARK  136  A    between atoms: _332  and  _333
REMARK  137  A    between atoms: _336  and  _338
REMARK  138  A    between atoms: _338  and  _339
REMARK  139  A    between atoms: _338  and  _341
REMARK  140  A    between atoms: _341  and  _342
REMARK  141  A    between atoms: _345  and  _347
REMARK  142  A    between atoms: _347  and  _348
REMARK  143  A    between atoms: _347  and  _350
REMARK  144  A    between atoms: _350  and  _351
REMARK  145  A    between atoms: _354  and  _356
REMARK  146  A    between atoms: _356  and  _357
REMARK  147  A    between atoms: _359  and  _361
REMARK  148  A    between atoms: _361  and  _362
REMARK  149  A    between atoms: _365  and  _367
REMARK  150  A    between atoms: _367  and  _368
REMARK  151  A    between atoms: _367  and  _370
REMARK  152  A    between atoms: _370  and  _371
REMARK  153  A    between atoms: _374  and  _376
REMARK  154  A    between atoms: _376  and  _377
REMARK  155  A    between atoms: _376  and  _379
REMARK  156  A    between atoms: _379  and  _380
REMARK  157  A    between atoms: _383  and  _385
REMARK  158  A    between atoms: _385  and  _386
REMARK  159  A    between atoms: _385  and  _388
REMARK  160  A    between atoms: _388  and  _389
REMARK  161  A    between atoms: _392  and  _394
REMARK  162  A    between atoms: _394  and  _395
REMARK  163  A    between atoms: _394  and  _397
REMARK  164  A    between atoms: _400  and  _402
REMARK  165  A    between atoms: _402  and  _403
REMARK  166  A    between atoms: _402  and  _405
REMARK  167  A    between atoms: _405  and  _406
REMARK  168  A    between atoms: _409  and  _411
REMARK  169  A    between atoms: _411  and  _412
REMARK  170  A    between atoms: _414  and  _416
REMARK  171  A    between atoms: _416  and  _417
REMARK  172  A    between atoms: _419  and  _421
REMARK  173  A    between atoms: _421  and  _422
REMARK  174  A    between atoms: _421  and  _424
REMARK  175  A    between atoms: _424  and  _425
REMARK  176  A    between atoms: _428  and  _430
REMARK  177  A    between atoms: _430  and  _431
REMARK  178  A    between atoms: _433  and  _435
REMARK  179  A    between atoms: _435  and  _436
REMARK  180  A    between atoms: _438  and  _440
REMARK  181  A    between atoms: _440  and  _441
REMARK  182  A    between atoms: _440  and  _443
REMARK  183  A    between atoms: _443  and  _444
REMARK  184  A    between atoms: _450  and  _452
REMARK  185  A    between atoms: _452  and  _453
REMARK  186  A    between atoms: _452  and  _455
REMARK  187  A    between atoms: _455  and  _456
REMARK  188  A    between atoms: _459  and  _461
REMARK  189  A    between atoms: _461  and  _462
REMARK  190  A    between atoms: _461  and  _464
REMARK  191  A    between atoms: _464  and  _465
REMARK  192  A    between atoms: _468  and  _470
REMARK  193  A    between atoms: _470  and  _471
REMARK  194  A    between atoms: _470  and  _473
REMARK  195  A    between atoms: _473  and  _474
REMARK  196  A    between atoms: _478  and  _479
REMARK  197  A    between atoms: _484  and  _486
REMARK  198  A    between atoms: _486  and  _487
REMARK  199  A    between atoms: _486  and  _489
REMARK  200  A    between atoms: _492  and  _494
REMARK  201  A    between atoms: _494  and  _495
REMARK  202  A    between atoms: _494  and  _497
REMARK  203  A    between atoms: _497  and  _498
REMARK  204  A    between atoms: _503  and  _505
REMARK  205  A    between atoms: _505  and  _506
REMARK  206  A    between atoms: _505  and  _508
REMARK  207  A    between atoms: _508  and  _509
REMARK  208  A    between atoms: _512  and  _514
REMARK  209  A    between atoms: _514  and  _515
REMARK  210  A    between atoms: _514  and  _517
REMARK  211  A    between atoms: _517  and  _518
REMARK  212  A    between atoms: _521  and  _523
REMARK  213  A    between atoms: _523  and  _524
REMARK  214  A    between atoms: _526  and  _528
REMARK  215  A    between atoms: _528  and  _529
REMARK  216  A    between atoms: _528  and  _531
REMARK  217  A    between atoms: _531  and  _532
REMARK  218  A    between atoms: _532  and  _533
REMARK  219  A    between atoms: _533  and  _534
REMARK                            x       y       z     vdW  Elec       q    Type
REMARK                         _______ _______ _______ _____ _____    ______ ____
ROOT
ATOM      1  O   HOH     1      16.506  27.495  11.408  0.00  0.00    +0.000 OA
ENDROOT
TORSDOF 0
REMARK  Name = ../refined-set-2016/2o4p/2o4p_pocket.pdb
REMARK  219 active torsions:
REMARK  status: ('A' for Active; 'I' for Inactive)
REMARK    1  A    between atoms: _1  and  _3
REMARK    2  A    between atoms: _3  and  _4
REMARK    3  A    between atoms: _3  and  _6
REMARK    4  A    between atoms: _6  and  _7
REMARK    5  A    between atoms: _7  and  _8
REMARK    6  A    between atoms: _8  and  _9
REMARK    7  A    between atoms: _18  and  _20
REMARK    8  A    between atoms: _20  and  _21
REMARK    9  A    between atoms: _20  and  _23
REMARK   10  A    between atoms: _23  and  _24
REMARK   11  A    between atoms: _27  and  _29
REMARK   12  A    between atoms: _29  and  _30
REMARK   13  A    between atoms: _29  and  _32
REMARK   14  A    between atoms: _32  and  _33
REMARK   15  A    between atoms: _36  and  _38
REMARK   16  A    between atoms: _38  and  _39
REMARK   17  A    between atoms: _38  and  _41
REMARK   18  A    between atoms: _41  and  _42
REMARK   19  A    between atoms: _45  and  _47
REMARK   20  A    between atoms: _47  and  _48
REMARK   21  A    between atoms: _47  and  _50
REMARK   22  A    between atoms: _50  and  _51
REMARK   23  A    between atoms: _54  and  _56
REMARK   24  A    between atoms: _56  and  _57
REMARK   25  A    between atoms: _56  and  _59
REMARK   26  A    between atoms: _59  and  _60
REMARK   27  A    between atoms: _63  and  _65
REMARK   28  A    between atoms: _65  and  _66
REMARK   29  A    between atoms: _68  and  _70
REMARK   30  A    between atoms: _70  and  _71
REMARK   31  A    between atoms: _74  and  _76
REMARK   32  A    between atoms: _76  and  _77
REMARK   33  A    between atoms: _76  and  _79
REMARK   34  A    between atoms: _79  and  _80
REMARK   35  A    between atoms: _83  and  _85
REMARK   36  A    between atoms: _85  and  _86
REMARK   37  A    between atoms: _85  and  _88
REMARK   38  A    between atoms: _88  and  _89
REMARK   39  A    between atoms: _92  and  _94
REMARK   40  A    between atoms: _94  and  _95
REMARK   41  A    between atoms: _94  and  _97
REMARK   42  A    between atoms: _97  and  _98
REMARK   43  A    between atoms: _101  and  _103
REMARK   44  A    between atoms: _103  and  _104
REMARK   45  A    between atoms: _103  and  _106
REMARK   46  A    between atoms: _109  and  _111
REMARK   47  A    between atoms: _111  and  _112
REMARK   48  A    between atoms: _111  and  _114
REMARK   49  A    between atoms: _114  and  _115
REMARK   50  A    between atoms: _115  and  _116
REMARK   51  A    between atoms: _116  and  _117
REMARK   52  A    between atoms: _117  and  _118
REMARK   53  A    between atoms: _122  and  _124
REMARK   54  A    between atoms: _124  and  _125
REMARK   55  A    between atoms: _124  and  _127
REMARK   56  A    between atoms: _127  and  _128
REMARK   57  A    between atoms: _128  and  _129
REMARK   58  A    between atoms: _131  and  _133
REMARK   59  A    between atoms: _133  and  _134
REMARK   60  A    between atoms: _133  and  _136
REMARK   61  A    between atoms: _136  and  _137
REMARK   62  A    between atoms: _140  and  _142
REMARK   63  A    between atoms: _142  and  _143
REMARK   64  A    between atoms: _145  and  _147
REMARK   65  A    between atoms: _147  and  _148
REMARK   66  A    between atoms: _150  and  _152
REMARK   67  A    between atoms: _152  and  _153
REMARK   68  A    between atoms: _152  and  _155
REMARK   69  A    between atoms: _155  and  _156
REMARK   70  A    between atoms: _159  and  _161
REMARK   71  A    between atoms: _161  and  _162
REMARK   72  A    between atoms: _164  and  _166
REMARK   73  A    between atoms: _166  and  _167
REMARK   74  A    between atoms: _169  and  _171
REMARK   75  A    between atoms: _171  and  _172
REMARK   76  A    between atoms: _171  and  _174
REMARK   77  A    between atoms: _174  and  _175
REMARK   78  A    between atoms: _181  and  _183
REMARK   79  A    between atoms: _183  and  _184
REMARK   80  A    between atoms: _183  and  _186
REMARK   81  A    between atoms: _186  and  _187
REMARK   82  A    between atoms: _190  and  _192
REMARK   83  A    between atoms: _192  and  _193
REMARK   84  A    between atoms: _192  and  _195
REMARK   85  A    between atoms: _195  and  _196
REMARK   86  A    between atoms: _199  and  _201
REMARK   87  A    between atoms: _201  and  _202
REMARK   88  A    between atoms: _201  and  _204
REMARK   89  A    between atoms: _204  and  _205
REMARK   90  A    between atoms: _209  and  _210
REMARK   91  A    between atoms: _215  and  _217
REMARK   92  A    between atoms: _217  and  _218
REMARK   93  A    between atoms: _217  and  _220
REMARK   94  A    between atoms: _223  and  _225
REMARK   95  A    between atoms: _225  and  _226
REMARK   96  A    between atoms: _225  and  _228
REMARK   97  A    between atoms: _228  and  _229
REMARK   98  A    between atoms: _234  and  _236
REMARK   99  A    between atoms: _236  and  _237
REMARK  100  A    between atoms: _236  and  _239
REMARK  101  A    between atoms: _239  and  _240
REMARK  102  A    between atoms: _243  and  _245
REMARK  103  A    between atoms: _245  and  _246
REMARK  104  A    between atoms: _245  and  _248
REMARK  105  A    between atoms: _248  and  _249
REMARK  106  A    between atoms: _252  and  _254
REMARK  107  A    between atoms: _254  and  _255
REMARK  108  A    between atoms: _257  and  _259
REMARK  109  A    between atoms: _259  and  _260
REMARK  110  A    between atoms: _259  and  _262
REMARK  111  A    between atoms: _262  and  _263
REMARK  112  A    between atoms: _263  and  _264
REMARK  113  A    between atoms: _264  and  _265
REMARK  114  A    between atoms: _274  and  _276
REMARK  115  A    between atoms: _276  and  _277
REMARK  116  A    between atoms: _276  and  _279
REMARK  117  A    between atoms: _279  and  _280
REMARK  118  A    between atoms: _285  and  _287
REMARK  119  A    between atoms: _287  and  _288
REMARK  120  A    between atoms: _287  and  _290
REMARK  121  A    between atoms: _290  and  _291
REMARK  122  A    between atoms: _291  and  _292
REMARK  123  A    between atoms: _292  and  _293
REMARK  124  A    between atoms: _303  and  _304
REMARK  125  A    between atoms: _309  and  _311
REMARK  126  A    between atoms: _311  and  _312
REMARK  127  A    between atoms: _311  and  _314
REMARK  128  A    between atoms: _314  and  _315
REMARK  129  A    between atoms: _318  and  _320
REMARK  130  A    between atoms: _320  and  _321
REMARK  131  A    between atoms: _320  and  _323
REMARK  132  A    between atoms: _323  and  _324
REMARK  133  A    between atoms: _327  and  _329
REMARK  134  A    between atoms: _329  and  _330
REMARK  135  A    between atoms: _329  and  _332
REMARK  136  A    between atoms: _332  and  _333
REMARK  137  A    between atoms: _336  and  _338
REMARK  138  A    between atoms: _338  and  _339
REMARK  139  A    between atoms: _338  and  _341
REMARK  140  A    between atoms: _341  and  _342
REMARK  141  A    between atoms: _345  and  _347
REMARK  142  A    between atoms: _347  and  _348
REMARK  143  A    between atoms: _347  and  _350
REMARK  144  A    between atoms: _350  and  _351
REMARK  145  A    between atoms: _354  and  _356
REMARK  146  A    between atoms: _356  and  _357
REMARK  147  A    between atoms: _359  and  _361
REMARK  148  A    between atoms: _361  and  _362
REMARK  149  A    between atoms: _365  and  _367
REMARK  150  A    between atoms: _367  and  _368
REMARK  151  A    between atoms: _367  and  _370
REMARK  152  A    between atoms: _370  and  _371
REMARK  153  A    between atoms: _374  and  _376
REMARK  154  A    between atoms: _376  and  _377
REMARK  155  A    between atoms: _376  and  _379
REMARK  156  A    between atoms: _379  and  _380
REMARK  157  A    between atoms: _383  and  _385
REMARK  158  A    between atoms: _385  and  _386
REMARK  159  A    between atoms: _385  and  _388
REMARK  160  A    between atoms: _388  and  _389
REMARK  161  A    between atoms: _392  and  _394
REMARK  162  A    between atoms: _394  and  _395
REMARK  163  A    between atoms: _394  and  _397
REMARK  164  A    between atoms: _400  and  _402
REMARK  165  A    between atoms: _402  and  _403
REMARK  166  A    between atoms: _402  and  _405
REMARK  167  A    between atoms: _405  and  _406
REMARK  168  A    between atoms: _409  and  _411
REMARK  169  A    between atoms: _411  and  _412
REMARK  170  A    between atoms: _414  and  _416
REMARK  171  A    between atoms: _416  and  _417
REMARK  172  A    between atoms: _419  and  _421
REMARK  173  A    between atoms: _421  and  _422
REMARK  174  A    between atoms: _421  and  _424
REMARK  175  A    between atoms: _424  and  _425
REMARK  176  A    between atoms: _428  and  _430
REMARK  177  A    between atoms: _430  and  _431
REMARK  178  A    between atoms: _433  and  _435
REMARK  179  A    between atoms: _435  and  _436
REMARK  180  A    between atoms: _438  and  _440
REMARK  181  A    between atoms: _440  and  _441
REMARK  182  A    between atoms: _440  and  _443
REMARK  183  A    between atoms: _443  and  _444
REMARK  184  A    between atoms: _450  and  _452
REMARK  185  A    between atoms: _452  and  _453
REMARK  186  A    between atoms: _452  and  _455
REMARK  187  A    between atoms: _455  and  _456
REMARK  188  A    between atoms: _459  and  _461
REMARK  189  A    between atoms: _461  and  _462
REMARK  190  A    between atoms: _461  and  _464
REMARK  191  A    between atoms: _464  and  _465
REMARK  192  A    between atoms: _468  and  _470
REMARK  193  A    between atoms: _470  and  _471
REMARK  194  A    between atoms: _470  and  _473
REMARK  195  A    between atoms: _473  and  _474
REMARK  196  A    between atoms: _478  and  _479
REMARK  197  A    between atoms: _484  and  _486
REMARK  198  A    between atoms: _486  and  _487
REMARK  199  A    between atoms: _486  and  _489
REMARK  200  A    between atoms: _492  and  _494
REMARK  201  A    between atoms: _494  and  _495
REMARK  202  A    between atoms: _494  and  _497
REMARK  203  A    between atoms: _497  and  _498
REMARK  204  A    between atoms: _503  and  _505
REMARK  205  A    between atoms: _505  and  _506
REMARK  206  A    between atoms: _505  and  _508
REMARK  207  A    between atoms: _508  and  _509
REMARK  208  A    between atoms: _512  and  _514
REMARK  209  A    between atoms: _514  and  _515
REMARK  210  A    between atoms: _514  and  _517
REMARK  211  A    between atoms: _517  and  _518
REMARK  212  A    between atoms: _521  and  _523
REMARK  213  A    between atoms: _523  and  _524
REMARK  214  A    between atoms: _526  and  _528
REMARK  215  A    between atoms: _528  and  _529
REMARK  216  A    between atoms: _528  and  _531
REMARK  217  A    between atoms: _531  and  _532
REMARK  218  A    between atoms: _532  and  _533
REMARK  219  A    between atoms: _533  and  _534
REMARK                            x       y       z     vdW  Elec       q    Type
REMARK                         _______ _______ _______ _____ _____    ______ ____
ROOT
ATOM      1  O   HOH     1      20.170  29.779  17.177  0.00  0.00    +0.000 OA
ENDROOT
TORSDOF 0
REMARK  Name = ../refined-set-2016/2o4p/2o4p_pocket.pdb
REMARK  219 active torsions:
REMARK  status: ('A' for Active; 'I' for Inactive)
REMARK    1  A    between atoms: _1  and  _3
REMARK    2  A    between atoms: _3  and  _4
REMARK    3  A    between atoms: _3  and  _6
REMARK    4  A    between atoms: _6  and  _7
REMARK    5  A    between atoms: _7  and  _8
REMARK    6  A    between atoms: _8  and  _9
REMARK    7  A    between atoms: _18  and  _20
REMARK    8  A    between atoms: _20  and  _21
REMARK    9  A    between atoms: _20  and  _23
REMARK   10  A    between atoms: _23  and  _24
REMARK   11  A    between atoms: _27  and  _29
REMARK   12  A    between atoms: _29  and  _30
REMARK   13  A    between atoms: _29  and  _32
REMARK   14  A    between atoms: _32  and  _33
REMARK   15  A    between atoms: _36  and  _38
REMARK   16  A    between atoms: _38  and  _39
REMARK   17  A    between atoms: _38  and  _41
REMARK   18  A    between atoms: _41  and  _42
REMARK   19  A    between atoms: _45  and  _47
REMARK   20  A    between atoms: _47  and  _48
REMARK   21  A    between atoms: _47  and  _50
REMARK   22  A    between atoms: _50  and  _51
REMARK   23  A    between atoms: _54  and  _56
REMARK   24  A    between atoms: _56  and  _57
REMARK   25  A    between atoms: _56  and  _59
REMARK   26  A    between atoms: _59  and  _60
REMARK   27  A    between atoms: _63  and  _65
REMARK   28  A    between atoms: _65  and  _66
REMARK   29  A    between atoms: _68  and  _70
REMARK   30  A    between atoms: _70  and  _71
REMARK   31  A    between atoms: _74  and  _76
REMARK   32  A    between atoms: _76  and  _77
REMARK   33  A    between atoms: _76  and  _79
REMARK   34  A    between atoms: _79  and  _80
REMARK   35  A    between atoms: _83  and  _85
REMARK   36  A    between atoms: _85  and  _86
REMARK   37  A    between atoms: _85  and  _88
REMARK   38  A    between atoms: _88  and  _89
REMARK   39  A    between atoms: _92  and  _94
REMARK   40  A    between atoms: _94  and  _95
REMARK   41  A    between atoms: _94  and  _97
REMARK   42  A    between atoms: _97  and  _98
REMARK   43  A    between atoms: _101  and  _103
REMARK   44  A    between atoms: _103  and  _104
REMARK   45  A    between atoms: _103  and  _106
REMARK   46  A    between atoms: _109  and  _111
REMARK   47  A    between atoms: _111  and  _112
REMARK   48  A    between atoms: _111  and  _114
REMARK   49  A    between atoms: _114  and  _115
REMARK   50  A    between atoms: _115  and  _116
REMARK   51  A    between atoms: _116  and  _117
REMARK   52  A    between atoms: _117  and  _118
REMARK   53  A    between atoms: _122  and  _124
REMARK   54  A    between atoms: _124  and  _125
REMARK   55  A    between atoms: _124  and  _127
REMARK   56  A    between atoms: _127  and  _128
REMARK   57  A    between atoms: _128  and  _129
REMARK   58  A    between atoms: _131  and  _133
REMARK   59  A    between atoms: _133  and  _134
REMARK   60  A    between atoms: _133  and  _136
REMARK   61  A    between atoms: _136  and  _137
REMARK   62  A    between atoms: _140  and  _142
REMARK   63  A    between atoms: _142  and  _143
REMARK   64  A    between atoms: _145  and  _147
REMARK   65  A    between atoms: _147  and  _148
REMARK   66  A    between atoms: _150  and  _152
REMARK   67  A    between atoms: _152  and  _153
REMARK   68  A    between atoms: _152  and  _155
REMARK   69  A    between atoms: _155  and  _156
REMARK   70  A    between atoms: _159  and  _161
REMARK   71  A    between atoms: _161  and  _162
REMARK   72  A    between atoms: _164  and  _166
REMARK   73  A    between atoms: _166  and  _167
REMARK   74  A    between atoms: _169  and  _171
REMARK   75  A    between atoms: _171  and  _172
REMARK   76  A    between atoms: _171  and  _174
REMARK   77  A    between atoms: _174  and  _175
REMARK   78  A    between atoms: _181  and  _183
REMARK   79  A    between atoms: _183  and  _184
REMARK   80  A    between atoms: _183  and  _186
REMARK   81  A    between atoms: _186  and  _187
REMARK   82  A    between atoms: _190  and  _192
REMARK   83  A    between atoms: _192  and  _193
REMARK   84  A    between atoms: _192  and  _195
REMARK   85  A    between atoms: _195  and  _196
REMARK   86  A    between atoms: _199  and  _201
REMARK   87  A    between atoms: _201  and  _202
REMARK   88  A    between atoms: _201  and  _204
REMARK   89  A    between atoms: _204  and  _205
REMARK   90  A    between atoms: _209  and  _210
REMARK   91  A    between atoms: _215  and  _217
REMARK   92  A    between atoms: _217  and  _218
REMARK   93  A    between atoms: _217  and  _220
REMARK   94  A    between atoms: _223  and  _225
REMARK   95  A    between atoms: _225  and  _226
REMARK   96  A    between atoms: _225  and  _228
REMARK   97  A    between atoms: _228  and  _229
REMARK   98  A    between atoms: _234  and  _236
REMARK   99  A    between atoms: _236  and  _237
REMARK  100  A    between atoms: _236  and  _239
REMARK  101  A    between atoms: _239  and  _240
REMARK  102  A    between atoms: _243  and  _245
REMARK  103  A    between atoms: _245  and  _246
REMARK  104  A    between atoms: _245  and  _248
REMARK  105  A    between atoms: _248  and  _249
REMARK  106  A    between atoms: _252  and  _254
REMARK  107  A    between atoms: _254  and  _255
REMARK  108  A    between atoms: _257  and  _259
REMARK  109  A    between atoms: _259  and  _260
REMARK  110  A    between atoms: _259  and  _262
REMARK  111  A    between atoms: _262  and  _263
REMARK  112  A    between atoms: _263  and  _264
REMARK  113  A    between atoms: _264  and  _265
REMARK  114  A    between atoms: _274  and  _276
REMARK  115  A    between atoms: _276  and  _277
REMARK  116  A    between atoms: _276  and  _279
REMARK  117  A    between atoms: _279  and  _280
REMARK  118  A    between atoms: _285  and  _287
REMARK  119  A    between atoms: _287  and  _288
REMARK  120  A    between atoms: _287  and  _290
REMARK  121  A    between atoms: _290  and  _291
REMARK  122  A    between atoms: _291  and  _292
REMARK  123  A    between atoms: _292  and  _293
REMARK  124  A    between atoms: _303  and  _304
REMARK  125  A    between atoms: _309  and  _311
REMARK  126  A    between atoms: _311  and  _312
REMARK  127  A    between atoms: _311  and  _314
REMARK  128  A    between atoms: _314  and  _315
REMARK  129  A    between atoms: _318  and  _320
REMARK  130  A    between atoms: _320  and  _321
REMARK  131  A    between atoms: _320  and  _323
REMARK  132  A    between atoms: _323  and  _324
REMARK  133  A    between atoms: _327  and  _329
REMARK  134  A    between atoms: _329  and  _330
REMARK  135  A    between atoms: _329  and  _332
REMARK  136  A    between atoms: _332  and  _333
REMARK  137  A    between atoms: _336  and  _338
REMARK  138  A    between atoms: _338  and  _339
REMARK  139  A    between atoms: _338  and  _341
REMARK  140  A    between atoms: _341  and  _342
REMARK  141  A    between atoms: _345  and  _347
REMARK  142  A    between atoms: _347  and  _348
REMARK  143  A    between atoms: _347  and  _350
REMARK  144  A    between atoms: _350  and  _351
REMARK  145  A    between atoms: _354  and  _356
REMARK  146  A    between atoms: _356  and  _357
REMARK  147  A    between atoms: _359  and  _361
REMARK  148  A    between atoms: _361  and  _362
REMARK  149  A    between atoms: _365  and  _367
REMARK  150  A    between atoms: _367  and  _368
REMARK  151  A    between atoms: _367  and  _370
REMARK  152  A    between atoms: _370  and  _371
REMARK  153  A    between atoms: _374  and  _376
REMARK  154  A    between atoms: _376  and  _377
REMARK  155  A    between atoms: _376  and  _379
REMARK  156  A    between atoms: _379  and  _380
REMARK  157  A    between atoms: _383  and  _385
REMARK  158  A    between atoms: _385  and  _386
REMARK  159  A    between atoms: _385  and  _388
REMARK  160  A    between atoms: _388  and  _389
REMARK  161  A    between atoms: _392  and  _394
REMARK  162  A    between atoms: _394  and  _395
REMARK  163  A    between atoms: _394  and  _397
REMARK  164  A    between atoms: _400  and  _402
REMARK  165  A    between atoms: _402  and  _403
REMARK  166  A    between atoms: _402  and  _405
REMARK  167  A    between atoms: _405  and  _406
REMARK  168  A    between atoms: _409  and  _411
REMARK  169  A    between atoms: _411  and  _412
REMARK  170  A    between atoms: _414  and  _416
REMARK  171  A    between atoms: _416  and  _417
REMARK  172  A    between atoms: _419  and  _421
REMARK  173  A    between atoms: _421  and  _422
REMARK  174  A    between atoms: _421  and  _424
REMARK  175  A    between atoms: _424  and  _425
REMARK  176  A    between atoms: _428  and  _430
REMARK  177  A    between atoms: _430  and  _431
REMARK  178  A    between atoms: _433  and  _435
REMARK  179  A    between atoms: _435  and  _436
REMARK  180  A    between atoms: _438  and  _440
REMARK  181  A    between atoms: _440  and  _441
REMARK  182  A    between atoms: _440  and  _443
REMARK  183  A    between atoms: _443  and  _444
REMARK  184  A    between atoms: _450  and  _452
REMARK  185  A    between atoms: _452  and  _453
REMARK  186  A    between atoms: _452  and  _455
REMARK  187  A    between atoms: _455  and  _456
REMARK  188  A    between atoms: _459  and  _461
REMARK  189  A    between atoms: _461  and  _462
REMARK  190  A    between atoms: _461  and  _464
REMARK  191  A    between atoms: _464  and  _465
REMARK  192  A    between atoms: _468  and  _470
REMARK  193  A    between atoms: _470  and  _471
REMARK  194  A    between atoms: _470  and  _473
REMARK  195  A    between atoms: _473  and  _474
REMARK  196  A    between atoms: _478  and  _479
REMARK  197  A    between atoms: _484  and  _486
REMARK  198  A    between atoms: _486  and  _487
REMARK  199  A    between atoms: _486  and  _489
REMARK  200  A    between atoms: _492  and  _494
REMARK  201  A    between atoms: _494  and  _495
REMARK  202  A    between atoms: _494  and  _497
REMARK  203  A    between atoms: _497  and  _498
REMARK  204  A    between atoms: _503  and  _505
REMARK  205  A    between atoms: _505  and  _506
REMARK  206  A    between atoms: _505  and  _508
REMARK  207  A    between atoms: _508  and  _509
REMARK  208  A    between atoms: _512  and  _514
REMARK  209  A    between atoms: _514  and  _515
REMARK  210  A    between atoms: _514  and  _517
REMARK  211  A    between atoms: _517  and  _518
REMARK  212  A    between atoms: _521  and  _523
REMARK  213  A    between atoms: _523  and  _524
REMARK  214  A    between atoms: _526  and  _528
REMARK  215  A    between atoms: _528  and  _529
REMARK  216  A    between atoms: _528  and  _531
REMARK  217  A    between atoms: _531  and  _532
REMARK  218  A    between atoms: _532  and  _533
REMARK  219  A    between atoms: _533  and  _534
REMARK                            x       y       z     vdW  Elec       q    Type
REMARK                         _______ _______ _______ _____ _____    ______ ____
ROOT
ATOM      1  O   HOH     1       4.993  14.122  26.303  0.00  0.00    +0.000 OA
ENDROOT
TORSDOF 0
REMARK  Name = ../refined-set-2016/2o4p/2o4p_pocket.pdb
REMARK  219 active torsions:
REMARK  status: ('A' for Active; 'I' for Inactive)
REMARK    1  A    between atoms: _1  and  _3
REMARK    2  A    between atoms: _3  and  _4
REMARK    3  A    between atoms: _3  and  _6
REMARK    4  A    between atoms: _6  and  _7
REMARK    5  A    between atoms: _7  and  _8
REMARK    6  A    between atoms: _8  and  _9
REMARK    7  A    between atoms: _18  and  _20
REMARK    8  A    between atoms: _20  and  _21
REMARK    9  A    between atoms: _20  and  _23
REMARK   10  A    between atoms: _23  and  _24
REMARK   11  A    between atoms: _27  and  _29
REMARK   12  A    between atoms: _29  and  _30
REMARK   13  A    between atoms: _29  and  _32
REMARK   14  A    between atoms: _32  and  _33
REMARK   15  A    between atoms: _36  and  _38
REMARK   16  A    between atoms: _38  and  _39
REMARK   17  A    between atoms: _38  and  _41
REMARK   18  A    between atoms: _41  and  _42
REMARK   19  A    between atoms: _45  and  _47
REMARK   20  A    between atoms: _47  and  _48
REMARK   21  A    between atoms: _47  and  _50
REMARK   22  A    between atoms: _50  and  _51
REMARK   23  A    between atoms: _54  and  _56
REMARK   24  A    between atoms: _56  and  _57
REMARK   25  A    between atoms: _56  and  _59
REMARK   26  A    between atoms: _59  and  _60
REMARK   27  A    between atoms: _63  and  _65
REMARK   28  A    between atoms: _65  and  _66
REMARK   29  A    between atoms: _68  and  _70
REMARK   30  A    between atoms: _70  and  _71
REMARK   31  A    between atoms: _74  and  _76
REMARK   32  A    between atoms: _76  and  _77
REMARK   33  A    between atoms: _76  and  _79
REMARK   34  A    between atoms: _79  and  _80
REMARK   35  A    between atoms: _83  and  _85
REMARK   36  A    between atoms: _85  and  _86
REMARK   37  A    between atoms: _85  and  _88
REMARK   38  A    between atoms: _88  and  _89
REMARK   39  A    between atoms: _92  and  _94
REMARK   40  A    between atoms: _94  and  _95
REMARK   41  A    between atoms: _94  and  _97
REMARK   42  A    between atoms: _97  and  _98
REMARK   43  A    between atoms: _101  and  _103
REMARK   44  A    between atoms: _103  and  _104
REMARK   45  A    between atoms: _103  and  _106
REMARK   46  A    between atoms: _109  and  _111
REMARK   47  A    between atoms: _111  and  _112
REMARK   48  A    between atoms: _111  and  _114
REMARK   49  A    between atoms: _114  and  _115
REMARK   50  A    between atoms: _115  and  _116
REMARK   51  A    between atoms: _116  and  _117
REMARK   52  A    between atoms: _117  and  _118
REMARK   53  A    between atoms: _122  and  _124
REMARK   54  A    between atoms: _124  and  _125
REMARK   55  A    between atoms: _124  and  _127
REMARK   56  A    between atoms: _127  and  _128
REMARK   57  A    between atoms: _128  and  _129
REMARK   58  A    between atoms: _131  and  _133
REMARK   59  A    between atoms: _133  and  _134
REMARK   60  A    between atoms: _133  and  _136
REMARK   61  A    between atoms: _136  and  _137
REMARK   62  A    between atoms: _140  and  _142
REMARK   63  A    between atoms: _142  and  _143
REMARK   64  A    between atoms: _145  and  _147
REMARK   65  A    between atoms: _147  and  _148
REMARK   66  A    between atoms: _150  and  _152
REMARK   67  A    between atoms: _152  and  _153
REMARK   68  A    between atoms: _152  and  _155
REMARK   69  A    between atoms: _155  and  _156
REMARK   70  A    between atoms: _159  and  _161
REMARK   71  A    between atoms: _161  and  _162
REMARK   72  A    between atoms: _164  and  _166
REMARK   73  A    between atoms: _166  and  _167
REMARK   74  A    between atoms: _169  and  _171
REMARK   75  A    between atoms: _171  and  _172
REMARK   76  A    between atoms: _171  and  _174
REMARK   77  A    between atoms: _174  and  _175
REMARK   78  A    between atoms: _181  and  _183
REMARK   79  A    between atoms: _183  and  _184
REMARK   80  A    between atoms: _183  and  _186
REMARK   81  A    between atoms: _186  and  _187
REMARK   82  A    between atoms: _190  and  _192
REMARK   83  A    between atoms: _192  and  _193
REMARK   84  A    between atoms: _192  and  _195
REMARK   85  A    between atoms: _195  and  _196
REMARK   86  A    between atoms: _199  and  _201
REMARK   87  A    between atoms: _201  and  _202
REMARK   88  A    between atoms: _201  and  _204
REMARK   89  A    between atoms: _204  and  _205
REMARK   90  A    between atoms: _209  and  _210
REMARK   91  A    between atoms: _215  and  _217
REMARK   92  A    between atoms: _217  and  _218
REMARK   93  A    between atoms: _217  and  _220
REMARK   94  A    between atoms: _223  and  _225
REMARK   95  A    between atoms: _225  and  _226
REMARK   96  A    between atoms: _225  and  _228
REMARK   97  A    between atoms: _228  and  _229
REMARK   98  A    between atoms: _234  and  _236
REMARK   99  A    between atoms: _236  and  _237
REMARK  100  A    between atoms: _236  and  _239
REMARK  101  A    between atoms: _239  and  _240
REMARK  102  A    between atoms: _243  and  _245
REMARK  103  A    between atoms: _245  and  _246
REMARK  104  A    between atoms: _245  and  _248
REMARK  105  A    between atoms: _248  and  _249
REMARK  106  A    between atoms: _252  and  _254
REMARK  107  A    between atoms: _254  and  _255
REMARK  108  A    between atoms: _257  and  _259
REMARK  109  A    between atoms: _259  and  _260
REMARK  110  A    between atoms: _259  and  _262
REMARK  111  A    between atoms: _262  and  _263
REMARK  112  A    between atoms: _263  and  _264
REMARK  113  A    between atoms: _264  and  _265
REMARK  114  A    between atoms: _274  and  _276
REMARK  115  A    between atoms: _276  and  _277
REMARK  116  A    between atoms: _276  and  _279
REMARK  117  A    between atoms: _279  and  _280
REMARK  118  A    between atoms: _285  and  _287
REMARK  119  A    between atoms: _287  and  _288
REMARK  120  A    between atoms: _287  and  _290
REMARK  121  A    between atoms: _290  and  _291
REMARK  122  A    between atoms: _291  and  _292
REMARK  123  A    between atoms: _292  and  _293
REMARK  124  A    between atoms: _303  and  _304
REMARK  125  A    between atoms: _309  and  _311
REMARK  126  A    between atoms: _311  and  _312
REMARK  127  A    between atoms: _311  and  _314
REMARK  128  A    between atoms: _314  and  _315
REMARK  129  A    between atoms: _318  and  _320
REMARK  130  A    between atoms: _320  and  _321
REMARK  131  A    between atoms: _320  and  _323
REMARK  132  A    between atoms: _323  and  _324
REMARK  133  A    between atoms: _327  and  _329
REMARK  134  A    between atoms: _329  and  _330
REMARK  135  A    between atoms: _329  and  _332
REMARK  136  A    between atoms: _332  and  _333
REMARK  137  A    between atoms: _336  and  _338
REMARK  138  A    between atoms: _338  and  _339
REMARK  139  A    between atoms: _338  and  _341
REMARK  140  A    between atoms: _341  and  _342
REMARK  141  A    between atoms: _345  and  _347
REMARK  142  A    between atoms: _347  and  _348
REMARK  143  A    between atoms: _347  and  _350
REMARK  144  A    between atoms: _350  and  _351
REMARK  145  A    between atoms: _354  and  _356
REMARK  146  A    between atoms: _356  and  _357
REMARK  147  A    between atoms: _359  and  _361
REMARK  148  A    between atoms: _361  and  _362
REMARK  149  A    between atoms: _365  and  _367
REMARK  150  A    between atoms: _367  and  _368
REMARK  151  A    between atoms: _367  and  _370
REMARK  152  A    between atoms: _370  and  _371
REMARK  153  A    between atoms: _374  and  _376
REMARK  154  A    between atoms: _376  and  _377
REMARK  155  A    between atoms: _376  and  _379
REMARK  156  A    between atoms: _379  and  _380
REMARK  157  A    between atoms: _383  and  _385
REMARK  158  A    between atoms: _385  and  _386
REMARK  159  A    between atoms: _385  and  _388
REMARK  160  A    between atoms: _388  and  _389
REMARK  161  A    between atoms: _392  and  _394
REMARK  162  A    between atoms: _394  and  _395
REMARK  163  A    between atoms: _394  and  _397
REMARK  164  A    between atoms: _400  and  _402
REMARK  165  A    between atoms: _402  and  _403
REMARK  166  A    between atoms: _402  and  _405
REMARK  167  A    between atoms: _405  and  _406
REMARK  168  A    between atoms: _409  and  _411
REMARK  169  A    between atoms: _411  and  _412
REMARK  170  A    between atoms: _414  and  _416
REMARK  171  A    between atoms: _416  and  _417
REMARK  172  A    between atoms: _419  and  _421
REMARK  173  A    between atoms: _421  and  _422
REMARK  174  A    between atoms: _421  and  _424
REMARK  175  A    between atoms: _424  and  _425
REMARK  176  A    between atoms: _428  and  _430
REMARK  177  A    between atoms: _430  and  _431
REMARK  178  A    between atoms: _433  and  _435
REMARK  179  A    between atoms: _435  and  _436
REMARK  180  A    between atoms: _438  and  _440
REMARK  181  A    between atoms: _440  and  _441
REMARK  182  A    between atoms: _440  and  _443
REMARK  183  A    between atoms: _443  and  _444
REMARK  184  A    between atoms: _450  and  _452
REMARK  185  A    between atoms: _452  and  _453
REMARK  186  A    between atoms: _452  and  _455
REMARK  187  A    between atoms: _455  and  _456
REMARK  188  A    between atoms: _459  and  _461
REMARK  189  A    between atoms: _461  and  _462
REMARK  190  A    between atoms: _461  and  _464
REMARK  191  A    between atoms: _464  and  _465
REMARK  192  A    between atoms: _468  and  _470
REMARK  193  A    between atoms: _470  and  _471
REMARK  194  A    between atoms: _470  and  _473
REMARK  195  A    between atoms: _473  and  _474
REMARK  196  A    between atoms: _478  and  _479
REMARK  197  A    between atoms: _484  and  _486
REMARK  198  A    between atoms: _486  and  _487
REMARK  199  A    between atoms: _486  and  _489
REMARK  200  A    between atoms: _492  and  _494
REMARK  201  A    between atoms: _494  and  _495
REMARK  202  A    between atoms: _494  and  _497
REMARK  203  A    between atoms: _497  and  _498
REMARK  204  A    between atoms: _503  and  _505
REMARK  205  A    between atoms: _505  and  _506
REMARK  206  A    between atoms: _505  and  _508
REMARK  207  A    between atoms: _508  and  _509
REMARK  208  A    between atoms: _512  and  _514
REMARK  209  A    between atoms: _514  and  _515
REMARK  210  A    between atoms: _514  and  _517
REMARK  211  A    between atoms: _517  and  _518
REMARK  212  A    between atoms: _521  and  _523
REMARK  213  A    between atoms: _523  and  _524
REMARK  214  A    between atoms: _526  and  _528
REMARK  215  A    between atoms: _528  and  _529
REMARK  216  A    between atoms: _528  and  _531
REMARK  217  A    between atoms: _531  and  _532
REMARK  218  A    between atoms: _532  and  _533
REMARK  219  A    between atoms: _533  and  _534
REMARK                            x       y       z     vdW  Elec       q    Type
REMARK                         _______ _______ _______ _____ _____    ______ ____
ROOT
ATOM      1  O   HOH     1      21.491  28.356  19.027  0.00  0.00    +0.000 OA
ENDROOT
TORSDOF 0
REMARK  Name = ../refined-set-2016/2o4p/2o4p_pocket.pdb
REMARK  219 active torsions:
REMARK  status: ('A' for Active; 'I' for Inactive)
REMARK    1  A    between atoms: _1  and  _3
REMARK    2  A    between atoms: _3  and  _4
REMARK    3  A    between atoms: _3  and  _6
REMARK    4  A    between atoms: _6  and  _7
REMARK    5  A    between atoms: _7  and  _8
REMARK    6  A    between atoms: _8  and  _9
REMARK    7  A    between atoms: _18  and  _20
REMARK    8  A    between atoms: _20  and  _21
REMARK    9  A    between atoms: _20  and  _23
REMARK   10  A    between atoms: _23  and  _24
REMARK   11  A    between atoms: _27  and  _29
REMARK   12  A    between atoms: _29  and  _30
REMARK   13  A    between atoms: _29  and  _32
REMARK   14  A    between atoms: _32  and  _33
REMARK   15  A    between atoms: _36  and  _38
REMARK   16  A    between atoms: _38  and  _39
REMARK   17  A    between atoms: _38  and  _41
REMARK   18  A    between atoms: _41  and  _42
REMARK   19  A    between atoms: _45  and  _47
REMARK   20  A    between atoms: _47  and  _48
REMARK   21  A    between atoms: _47  and  _50
REMARK   22  A    between atoms: _50  and  _51
REMARK   23  A    between atoms: _54  and  _56
REMARK   24  A    between atoms: _56  and  _57
REMARK   25  A    between atoms: _56  and  _59
REMARK   26  A    between atoms: _59  and  _60
REMARK   27  A    between atoms: _63  and  _65
REMARK   28  A    between atoms: _65  and  _66
REMARK   29  A    between atoms: _68  and  _70
REMARK   30  A    between atoms: _70  and  _71
REMARK   31  A    between atoms: _74  and  _76
REMARK   32  A    between atoms: _76  and  _77
REMARK   33  A    between atoms: _76  and  _79
REMARK   34  A    between atoms: _79  and  _80
REMARK   35  A    between atoms: _83  and  _85
REMARK   36  A    between atoms: _85  and  _86
REMARK   37  A    between atoms: _85  and  _88
REMARK   38  A    between atoms: _88  and  _89
REMARK   39  A    between atoms: _92  and  _94
REMARK   40  A    between atoms: _94  and  _95
REMARK   41  A    between atoms: _94  and  _97
REMARK   42  A    between atoms: _97  and  _98
REMARK   43  A    between atoms: _101  and  _103
REMARK   44  A    between atoms: _103  and  _104
REMARK   45  A    between atoms: _103  and  _106
REMARK   46  A    between atoms: _109  and  _111
REMARK   47  A    between atoms: _111  and  _112
REMARK   48  A    between atoms: _111  and  _114
REMARK   49  A    between atoms: _114  and  _115
REMARK   50  A    between atoms: _115  and  _116
REMARK   51  A    between atoms: _116  and  _117
REMARK   52  A    between atoms: _117  and  _118
REMARK   53  A    between atoms: _122  and  _124
REMARK   54  A    between atoms: _124  and  _125
REMARK   55  A    between atoms: _124  and  _127
REMARK   56  A    between atoms: _127  and  _128
REMARK   57  A    between atoms: _128  and  _129
REMARK   58  A    between atoms: _131  and  _133
REMARK   59  A    between atoms: _133  and  _134
REMARK   60  A    between atoms: _133  and  _136
REMARK   61  A    between atoms: _136  and  _137
REMARK   62  A    between atoms: _140  and  _142
REMARK   63  A    between atoms: _142  and  _143
REMARK   64  A    between atoms: _145  and  _147
REMARK   65  A    between atoms: _147  and  _148
REMARK   66  A    between atoms: _150  and  _152
REMARK   67  A    between atoms: _152  and  _153
REMARK   68  A    between atoms: _152  and  _155
REMARK   69  A    between atoms: _155  and  _156
REMARK   70  A    between atoms: _159  and  _161
REMARK   71  A    between atoms: _161  and  _162
REMARK   72  A    between atoms: _164  and  _166
REMARK   73  A    between atoms: _166  and  _167
REMARK   74  A    between atoms: _169  and  _171
REMARK   75  A    between atoms: _171  and  _172
REMARK   76  A    between atoms: _171  and  _174
REMARK   77  A    between atoms: _174  and  _175
REMARK   78  A    between atoms: _181  and  _183
REMARK   79  A    between atoms: _183  and  _184
REMARK   80  A    between atoms: _183  and  _186
REMARK   81  A    between atoms: _186  and  _187
REMARK   82  A    between atoms: _190  and  _192
REMARK   83  A    between atoms: _192  and  _193
REMARK   84  A    between atoms: _192  and  _195
REMARK   85  A    between atoms: _195  and  _196
REMARK   86  A    between atoms: _199  and  _201
REMARK   87  A    between atoms: _201  and  _202
REMARK   88  A    between atoms: _201  and  _204
REMARK   89  A    between atoms: _204  and  _205
REMARK   90  A    between atoms: _209  and  _210
REMARK   91  A    between atoms: _215  and  _217
REMARK   92  A    between atoms: _217  and  _218
REMARK   93  A    between atoms: _217  and  _220
REMARK   94  A    between atoms: _223  and  _225
REMARK   95  A    between atoms: _225  and  _226
REMARK   96  A    between atoms: _225  and  _228
REMARK   97  A    between atoms: _228  and  _229
REMARK   98  A    between atoms: _234  and  _236
REMARK   99  A    between atoms: _236  and  _237
REMARK  100  A    between atoms: _236  and  _239
REMARK  101  A    between atoms: _239  and  _240
REMARK  102  A    between atoms: _243  and  _245
REMARK  103  A    between atoms: _245  and  _246
REMARK  104  A    between atoms: _245  and  _248
REMARK  105  A    between atoms: _248  and  _249
REMARK  106  A    between atoms: _252  and  _254
REMARK  107  A    between atoms: _254  and  _255
REMARK  108  A    between atoms: _257  and  _259
REMARK  109  A    between atoms: _259  and  _260
REMARK  110  A    between atoms: _259  and  _262
REMARK  111  A    between atoms: _262  and  _263
REMARK  112  A    between atoms: _263  and  _264
REMARK  113  A    between atoms: _264  and  _265
REMARK  114  A    between atoms: _274  and  _276
REMARK  115  A    between atoms: _276  and  _277
REMARK  116  A    between atoms: _276  and  _279
REMARK  117  A    between atoms: _279  and  _280
REMARK  118  A    between atoms: _285  and  _287
REMARK  119  A    between atoms: _287  and  _288
REMARK  120  A    between atoms: _287  and  _290
REMARK  121  A    between atoms: _290  and  _291
REMARK  122  A    between atoms: _291  and  _292
REMARK  123  A    between atoms: _292  and  _293
REMARK  124  A    between atoms: _303  and  _304
REMARK  125  A    between atoms: _309  and  _311
REMARK  126  A    between atoms: _311  and  _312
REMARK  127  A    between atoms: _311  and  _314
REMARK  128  A    between atoms: _314  and  _315
REMARK  129  A    between atoms: _318  and  _320
REMARK  130  A    between atoms: _320  and  _321
REMARK  131  A    between atoms: _320  and  _323
REMARK  132  A    between atoms: _323  and  _324
REMARK  133  A    between atoms: _327  and  _329
REMARK  134  A    between atoms: _329  and  _330
REMARK  135  A    between atoms: _329  and  _332
REMARK  136  A    between atoms: _332  and  _333
REMARK  137  A    between atoms: _336  and  _338
REMARK  138  A    between atoms: _338  and  _339
REMARK  139  A    between atoms: _338  and  _341
REMARK  140  A    between atoms: _341  and  _342
REMARK  141  A    between atoms: _345  and  _347
REMARK  142  A    between atoms: _347  and  _348
REMARK  143  A    between atoms: _347  and  _350
REMARK  144  A    between atoms: _350  and  _351
REMARK  145  A    between atoms: _354  and  _356
REMARK  146  A    between atoms: _356  and  _357
REMARK  147  A    between atoms: _359  and  _361
REMARK  148  A    between atoms: _361  and  _362
REMARK  149  A    between atoms: _365  and  _367
REMARK  150  A    between atoms: _367  and  _368
REMARK  151  A    between atoms: _367  and  _370
REMARK  152  A    between atoms: _370  and  _371
REMARK  153  A    between atoms: _374  and  _376
REMARK  154  A    between atoms: _376  and  _377
REMARK  155  A    between atoms: _376  and  _379
REMARK  156  A    between atoms: _379  and  _380
REMARK  157  A    between atoms: _383  and  _385
REMARK  158  A    between atoms: _385  and  _386
REMARK  159  A    between atoms: _385  and  _388
REMARK  160  A    between atoms: _388  and  _389
REMARK  161  A    between atoms: _392  and  _394
REMARK  162  A    between atoms: _394  and  _395
REMARK  163  A    between atoms: _394  and  _397
REMARK  164  A    between atoms: _400  and  _402
REMARK  165  A    between atoms: _402  and  _403
REMARK  166  A    between atoms: _402  and  _405
REMARK  167  A    between atoms: _405  and  _406
REMARK  168  A    between atoms: _409  and  _411
REMARK  169  A    between atoms: _411  and  _412
REMARK  170  A    between atoms: _414  and  _416
REMARK  171  A    between atoms: _416  and  _417
REMARK  172  A    between atoms: _419  and  _421
REMARK  173  A    between atoms: _421  and  _422
REMARK  174  A    between atoms: _421  and  _424
REMARK  175  A    between atoms: _424  and  _425
REMARK  176  A    between atoms: _428  and  _430
REMARK  177  A    between atoms: _430  and  _431
REMARK  178  A    between atoms: _433  and  _435
REMARK  179  A    between atoms: _435  and  _436
REMARK  180  A    between atoms: _438  and  _440
REMARK  181  A    between atoms: _440  and  _441
REMARK  182  A    between atoms: _440  and  _443
REMARK  183  A    between atoms: _443  and  _444
REMARK  184  A    between atoms: _450  and  _452
REMARK  185  A    between atoms: _452  and  _453
REMARK  186  A    between atoms: _452  and  _455
REMARK  187  A    between atoms: _455  and  _456
REMARK  188  A    between atoms: _459  and  _461
REMARK  189  A    between atoms: _461  and  _462
REMARK  190  A    between atoms: _461  and  _464
REMARK  191  A    between atoms: _464  and  _465
REMARK  192  A    between atoms: _468  and  _470
REMARK  193  A    between atoms: _470  and  _471
REMARK  194  A    between atoms: _470  and  _473
REMARK  195  A    between atoms: _473  and  _474
REMARK  196  A    between atoms: _478  and  _479
REMARK  197  A    between atoms: _484  and  _486
REMARK  198  A    between atoms: _486  and  _487
REMARK  199  A    between atoms: _486  and  _489
REMARK  200  A    between atoms: _492  and  _494
REMARK  201  A    between atoms: _494  and  _495
REMARK  202  A    between atoms: _494  and  _497
REMARK  203  A    between atoms: _497  and  _498
REMARK  204  A    between atoms: _503  and  _505
REMARK  205  A    between atoms: _505  and  _506
REMARK  206  A    between atoms: _505  and  _508
REMARK  207  A    between atoms: _508  and  _509
REMARK  208  A    between atoms: _512  and  _514
REMARK  209  A    between atoms: _514  and  _515
REMARK  210  A    between atoms: _514  and  _517
REMARK  211  A    between atoms: _517  and  _518
REMARK  212  A    between atoms: _521  and  _523
REMARK  213  A    between atoms: _523  and  _524
REMARK  214  A    between atoms: _526  and  _528
REMARK  215  A    between atoms: _528  and  _529
REMARK  216  A    between atoms: _528  and  _531
REMARK  217  A    between atoms: _531  and  _532
REMARK  218  A    between atoms: _532  and  _533
REMARK  219  A    between atoms: _533  and  _534
REMARK                            x       y       z     vdW  Elec       q    Type
REMARK                         _______ _______ _______ _____ _____    ______ ____
ROOT
ATOM      1  O   HOH     1       1.846  14.242  19.963  0.00  0.00    +0.000 OA
ENDROOT
TORSDOF 0
