REMARK  Name = ../refined-set-2016/2pqc/2pqc_pocket.pdb
REMARK  243 active torsions:
REMARK  status: ('A' for Active; 'I' for Inactive)
REMARK    1  A    between atoms: _1  and  _3
REMARK    2  A    between atoms: _3  and  _4
REMARK    3  A    between atoms: _3  and  _6
REMARK    4  A    between atoms: _6  and  _7
REMARK    5  A    between atoms: _10  and  _12
REMARK    6  A    between atoms: _12  and  _13
REMARK    7  A    between atoms: _12  and  _15
REMARK    8  A    between atoms: _15  and  _16
REMARK    9  A    between atoms: _16  and  _17
REMARK   10  A    between atoms: _17  and  _18
REMARK   11  A    between atoms: _18  and  _19
REMARK   12  A    between atoms: _23  and  _25
REMARK   13  A    between atoms: _25  and  _26
REMARK   14  A    between atoms: _25  and  _28
REMARK   15  A    between atoms: _28  and  _29
REMARK   16  A    between atoms: _31  and  _33
REMARK   17  A    between atoms: _33  and  _34
REMARK   18  A    between atoms: _33  and  _36
REMARK   19  A    between atoms: _36  and  _37
REMARK   20  A    between atoms: _40  and  _42
REMARK   21  A    between atoms: _42  and  _43
REMARK   22  A    between atoms: _42  and  _45
REMARK   23  A    between atoms: _45  and  _46
REMARK   24  A    between atoms: _48  and  _50
REMARK   25  A    between atoms: _50  and  _51
REMARK   26  A    between atoms: _50  and  _53
REMARK   27  A    between atoms: _53  and  _54
REMARK   28  A    between atoms: _59  and  _61
REMARK   29  A    between atoms: _61  and  _62
REMARK   30  A    between atoms: _61  and  _64
REMARK   31  A    between atoms: _64  and  _65
REMARK   32  A    between atoms: _65  and  _66
REMARK   33  A    between atoms: _66  and  _67
REMARK   34  A    between atoms: _76  and  _78
REMARK   35  A    between atoms: _78  and  _79
REMARK   36  A    between atoms: _78  and  _81
REMARK   37  A    between atoms: _81  and  _82
REMARK   38  A    between atoms: _85  and  _87
REMARK   39  A    between atoms: _87  and  _88
REMARK   40  A    between atoms: _87  and  _90
REMARK   41  A    between atoms: _90  and  _91
REMARK   42  A    between atoms: _96  and  _98
REMARK   43  A    between atoms: _98  and  _99
REMARK   44  A    between atoms: _102  and  _104
REMARK   45  A    between atoms: _104  and  _105
REMARK   46  A    between atoms: _108  and  _110
REMARK   47  A    between atoms: _110  and  _111
REMARK   48  A    between atoms: _110  and  _113
REMARK   49  A    between atoms: _113  and  _114
REMARK   50  A    between atoms: _117  and  _119
REMARK   51  A    between atoms: _119  and  _120
REMARK   52  A    between atoms: _122  and  _124
REMARK   53  A    between atoms: _124  and  _125
REMARK   54  A    between atoms: _124  and  _127
REMARK   55  A    between atoms: _129  and  _131
REMARK   56  A    between atoms: _131  and  _132
REMARK   57  A    between atoms: _131  and  _134
REMARK   58  A    between atoms: _134  and  _135
REMARK   59  A    between atoms: _135  and  _136
REMARK   60  A    between atoms: _136  and  _137
REMARK   61  A    between atoms: _146  and  _148
REMARK   62  A    between atoms: _148  and  _149
REMARK   63  A    between atoms: _148  and  _151
REMARK   64  A    between atoms: _151  and  _152
REMARK   65  A    between atoms: _155  and  _157
REMARK   66  A    between atoms: _157  and  _158
REMARK   67  A    between atoms: _157  and  _160
REMARK   68  A    between atoms: _160  and  _161
REMARK   69  A    between atoms: _163  and  _165
REMARK   70  A    between atoms: _165  and  _166
REMARK   71  A    between atoms: _165  and  _168
REMARK   72  A    between atoms: _168  and  _169
REMARK   73  A    between atoms: _172  and  _174
REMARK   74  A    between atoms: _174  and  _175
REMARK   75  A    between atoms: _174  and  _177
REMARK   76  A    between atoms: _177  and  _178
REMARK   77  A    between atoms: _178  and  _179
REMARK   78  A    between atoms: _179  and  _180
REMARK   79  A    between atoms: _190  and  _191
REMARK   80  A    between atoms: _196  and  _198
REMARK   81  A    between atoms: _198  and  _199
REMARK   82  A    between atoms: _198  and  _201
REMARK   83  A    between atoms: _201  and  _202
REMARK   84  A    between atoms: _202  and  _203
REMARK   85  A    between atoms: _203  and  _204
REMARK   86  A    between atoms: _213  and  _215
REMARK   87  A    between atoms: _215  and  _216
REMARK   88  A    between atoms: _215  and  _218
REMARK   89  A    between atoms: _221  and  _223
REMARK   90  A    between atoms: _223  and  _224
REMARK   91  A    between atoms: _223  and  _226
REMARK   92  A    between atoms: _229  and  _231
REMARK   93  A    between atoms: _231  and  _232
REMARK   94  A    between atoms: _231  and  _234
REMARK   95  A    between atoms: _234  and  _235
REMARK   96  A    between atoms: _235  and  _236
REMARK   97  A    between atoms: _238  and  _240
REMARK   98  A    between atoms: _240  and  _241
REMARK   99  A    between atoms: _244  and  _246
REMARK  100  A    between atoms: _246  and  _247
REMARK  101  A    between atoms: _246  and  _249
REMARK  102  A    between atoms: _249  and  _250
REMARK  103  A    between atoms: _252  and  _254
REMARK  104  A    between atoms: _254  and  _255
REMARK  105  A    between atoms: _258  and  _260
REMARK  106  A    between atoms: _260  and  _261
REMARK  107  A    between atoms: _260  and  _263
REMARK  108  A    between atoms: _263  and  _264
REMARK  109  A    between atoms: _264  and  _265
REMARK  110  A    between atoms: _270  and  _272
REMARK  111  A    between atoms: _272  and  _273
REMARK  112  A    between atoms: _272  and  _275
REMARK  113  A    between atoms: _278  and  _280
REMARK  114  A    between atoms: _280  and  _281
REMARK  115  A    between atoms: _280  and  _283
REMARK  116  A    between atoms: _283  and  _284
REMARK  117  A    between atoms: _284  and  _285
REMARK  118  A    between atoms: _285  and  _286
REMARK  119  A    between atoms: _286  and  _287
REMARK  120  A    between atoms: _291  and  _293
REMARK  121  A    between atoms: _293  and  _294
REMARK  122  A    between atoms: _293  and  _296
REMARK  123  A    between atoms: _296  and  _297
REMARK  124  A    between atoms: _299  and  _301
REMARK  125  A    between atoms: _301  and  _302
REMARK  126  A    between atoms: _305  and  _307
REMARK  127  A    between atoms: _307  and  _308
REMARK  128  A    between atoms: _307  and  _310
REMARK  129  A    between atoms: _310  and  _311
REMARK  130  A    between atoms: _314  and  _316
REMARK  131  A    between atoms: _316  and  _317
REMARK  132  A    between atoms: _316  and  _319
REMARK  133  A    between atoms: _319  and  _320
REMARK  134  A    between atoms: _320  and  _321
REMARK  135  A    between atoms: _321  and  _322
REMARK  136  A    between atoms: _331  and  _333
REMARK  137  A    between atoms: _333  and  _334
REMARK  138  A    between atoms: _333  and  _336
REMARK  139  A    between atoms: _336  and  _337
REMARK  140  A    between atoms: _340  and  _342
REMARK  141  A    between atoms: _342  and  _343
REMARK  142  A    between atoms: _342  and  _345
REMARK  143  A    between atoms: _345  and  _346
REMARK  144  A    between atoms: _351  and  _353
REMARK  145  A    between atoms: _353  and  _354
REMARK  146  A    between atoms: _353  and  _356
REMARK  147  A    between atoms: _356  and  _357
REMARK  148  A    between atoms: _360  and  _362
REMARK  149  A    between atoms: _362  and  _363
REMARK  150  A    between atoms: _362  and  _365
REMARK  151  A    between atoms: _365  and  _366
REMARK  152  A    between atoms: _369  and  _371
REMARK  153  A    between atoms: _371  and  _372
REMARK  154  A    between atoms: _371  and  _374
REMARK  155  A    between atoms: _374  and  _375
REMARK  156  A    between atoms: _377  and  _379
REMARK  157  A    between atoms: _379  and  _380
REMARK  158  A    between atoms: _379  and  _382
REMARK  159  A    between atoms: _382  and  _383
REMARK  160  A    between atoms: _383  and  _384
REMARK  161  A    between atoms: _384  and  _385
REMARK  162  A    between atoms: _394  and  _396
REMARK  163  A    between atoms: _396  and  _397
REMARK  164  A    between atoms: _401  and  _402
REMARK  165  A    between atoms: _407  and  _409
REMARK  166  A    between atoms: _409  and  _410
REMARK  167  A    between atoms: _409  and  _412
REMARK  168  A    between atoms: _412  and  _413
REMARK  169  A    between atoms: _413  and  _414
REMARK  170  A    between atoms: _416  and  _418
REMARK  171  A    between atoms: _418  and  _419
REMARK  172  A    between atoms: _418  and  _421
REMARK  173  A    between atoms: _421  and  _422
REMARK  174  A    between atoms: _425  and  _427
REMARK  175  A    between atoms: _427  and  _428
REMARK  176  A    between atoms: _427  and  _430
REMARK  177  A    between atoms: _430  and  _431
REMARK  178  A    between atoms: _434  and  _436
REMARK  179  A    between atoms: _436  and  _437
REMARK  180  A    between atoms: _436  and  _439
REMARK  181  A    between atoms: _439  and  _440
REMARK  182  A    between atoms: _440  and  _441
REMARK  183  A    between atoms: _445  and  _446
REMARK  184  A    between atoms: _451  and  _453
REMARK  185  A    between atoms: _453  and  _454
REMARK  186  A    between atoms: _453  and  _456
REMARK  187  A    between atoms: _456  and  _457
REMARK  188  A    between atoms: _457  and  _458
REMARK  189  A    between atoms: _461  and  _463
REMARK  190  A    between atoms: _463  and  _464
REMARK  191  A    between atoms: _463  and  _466
REMARK  192  A    between atoms: _466  and  _467
REMARK  193  A    between atoms: _470  and  _472
REMARK  194  A    between atoms: _472  and  _473
REMARK  195  A    between atoms: _472  and  _475
REMARK  196  A    between atoms: _478  and  _480
REMARK  197  A    between atoms: _480  and  _481
REMARK  198  A    between atoms: _480  and  _483
REMARK  199  A    between atoms: _483  and  _484
REMARK  200  A    between atoms: _484  and  _485
REMARK  201  A    between atoms: _485  and  _486
REMARK  202  A    between atoms: _486  and  _487
REMARK  203  A    between atoms: _491  and  _493
REMARK  204  A    between atoms: _493  and  _494
REMARK  205  A    between atoms: _493  and  _496
REMARK  206  A    between atoms: _496  and  _497
REMARK  207  A    between atoms: _497  and  _498
REMARK  208  A    between atoms: _501  and  _503
REMARK  209  A    between atoms: _503  and  _504
REMARK  210  A    between atoms: _503  and  _506
REMARK  211  A    between atoms: _506  and  _507
REMARK  212  A    between atoms: _509  and  _511
REMARK  213  A    between atoms: _511  and  _512
REMARK  214  A    between atoms: _511  and  _514
REMARK  215  A    between atoms: _514  and  _515
REMARK  216  A    between atoms: _515  and  _516
REMARK  217  A    between atoms: _516  and  _517
REMARK  218  A    between atoms: _526  and  _528
REMARK  219  A    between atoms: _528  and  _529
REMARK  220  A    between atoms: _528  and  _531
REMARK  221  A    between atoms: _531  and  _532
REMARK  222  A    between atoms: _535  and  _537
REMARK  223  A    between atoms: _537  and  _538
REMARK  224  A    between atoms: _537  and  _540
REMARK  225  A    between atoms: _540  and  _541
REMARK  226  A    between atoms: _546  and  _548
REMARK  227  A    between atoms: _548  and  _549
REMARK  228  A    between atoms: _548  and  _551
REMARK  229  A    between atoms: _551  and  _552
REMARK  230  A    between atoms: _552  and  _553
REMARK  231  A    between atoms: _553  and  _554
REMARK  232  A    between atoms: _563  and  _565
REMARK  233  A    between atoms: _565  and  _566
REMARK  234  A    between atoms: _565  and  _568
REMARK  235  A    between atoms: _568  and  _569
REMARK  236  A    between atoms: _572  and  _574
REMARK  237  A    between atoms: _574  and  _575
REMARK  238  A    between atoms: _574  and  _577
REMARK  239  A    between atoms: _577  and  _578
REMARK  240  A    between atoms: _581  and  _583
REMARK  241  A    between atoms: _583  and  _584
REMARK  242  A    between atoms: _583  and  _586
REMARK  243  A    between atoms: _586  and  _587
REMARK                            x       y       z     vdW  Elec       q    Type
REMARK                         _______ _______ _______ _____ _____    ______ ____
ROOT
ATOM      1  C   ILE A   4    -125.592  33.934 137.021  0.00  0.00    +0.241 C 
ATOM      2  O   ILE A   4    -124.568  33.535 137.591  0.00  0.00    -0.273 OA
ATOM      3  N   SER A   5    -126.806  33.462 137.308  0.00  0.00    -0.295 N 
ATOM      4  H   SER A   5    -127.639  33.815 136.794  0.00  0.00    +0.150 HD
ENDROOT
BRANCH   3   5
ATOM      5  CA  SER A   5    -126.962  32.439 138.356  0.00  0.00    +0.178 C 
BRANCH   5   6
ATOM      6  C   SER A   5    -126.244  31.145 137.989  0.00  0.00    +0.243 C 
ATOM      7  O   SER A   5    -125.547  30.553 138.834  0.00  0.00    -0.273 OA
ATOM      8  N   HIS A   6    -126.397  30.710 136.742  0.00  0.00    -0.297 N 
ATOM      9  H   HIS A   6    -127.011  31.245 136.094  0.00  0.00    +0.150 HD
BRANCH   8  10
ATOM     10  CA  HIS A   6    -125.727  29.498 136.249  0.00  0.00    +0.155 C 
BRANCH  10  11
ATOM     11  C   HIS A   6    -124.222  29.662 136.465  0.00  0.00    +0.241 C 
ATOM     12  O   HIS A   6    -123.561  28.790 137.030  0.00  0.00    -0.273 OA
ATOM     13  N   ARG A   7    -123.686  30.787 135.997  0.00  0.00    -0.298 N 
ATOM     14  H   ARG A   7    -124.295  31.499 135.546  0.00  0.00    +0.150 HD
BRANCH  13  15
ATOM     15  CA  ARG A   7    -122.249  31.031 136.111  0.00  0.00    +0.137 C 
BRANCH  15  16
ATOM     16  C   ARG A   7    -121.763  31.193 137.547  0.00  0.00    +0.227 C 
ATOM     17  O   ARG A   7    -120.595  30.922 137.843  0.00  0.00    -0.286 OA
ENDBRANCH  15  16
BRANCH  15  18
ATOM     18  CB  ARG A   7    -121.859  32.264 135.291  0.00  0.00    +0.031 C 
BRANCH  18  19
ATOM     19  CG  ARG A   7    -121.981  32.020 133.783  0.00  0.00    +0.045 C 
BRANCH  19  20
ATOM     20  CD  ARG A   7    -122.104  33.327 132.980  0.00  0.00    +0.174 C 
BRANCH  20  21
ATOM     21  NE  ARG A   7    -122.080  33.087 131.528  0.00  0.00    -0.265 N 
ATOM     22  HE  ARG A   7    -121.176  33.213 131.030  0.00  0.00    +0.259 HD
ATOM     23  CZ  ARG A   7    -123.142  32.718 130.807  0.00  0.00    +0.342 C 
ATOM     24  NH2 ARG A   7    -124.317  32.559 131.389  0.00  0.00    -0.292 N 
ATOM     25 HH21 ARG A   7    -124.417  32.721 132.411  0.00  0.00    +0.255 HD
ATOM     26 HH22 ARG A   7    -125.142  32.272 130.825  0.00  0.00    +0.255 HD
ATOM     27  NH1 ARG A   7    -123.035  32.473 129.502  0.00  0.00    -0.292 N 
ATOM     28 HH11 ARG A   7    -122.114  32.568 129.029  0.00  0.00    +0.255 HD
ATOM     29 HH12 ARG A   7    -123.873  32.187 128.956  0.00  0.00    +0.255 HD
ENDBRANCH  20  21
ENDBRANCH  19  20
ENDBRANCH  18  19
ENDBRANCH  15  18
ENDBRANCH  13  15
ENDBRANCH  10  11
BRANCH  10  30
ATOM     30  CB  HIS A   6    -125.921  29.305 134.739  0.00  0.00    +0.076 C 
BRANCH  30  31
ATOM     31  CG  HIS A   6    -127.182  28.597 134.359  0.00  0.00    +0.082 A 
ATOM     32  ND1 HIS A   6    -127.458  27.303 134.745  0.00  0.00    -0.227 NA
ATOM     33  CE1 HIS A   6    -128.617  26.934 134.226  0.00  0.00    +0.199 A 
ATOM     34  NE2 HIS A   6    -129.100  27.940 133.516  0.00  0.00    -0.221 NA
ATOM     35  CD2 HIS A   6    -128.223  28.991 133.581  0.00  0.00    +0.115 A 
ENDBRANCH  30  31
ENDBRANCH  10  30
ENDBRANCH   8  10
ENDBRANCH   5   6
BRANCH   5  36
ATOM     36  CB  SER A   5    -128.448  32.179 138.647  0.00  0.00    +0.166 C 
BRANCH  36  37
ATOM     37  OG  SER A   5    -129.000  33.322 139.306  0.00  0.00    -0.380 OA
ATOM     38  H   SER A   5    -128.908  34.115 138.721  0.00  0.00    +0.211 HD
ENDBRANCH  36  37
ENDBRANCH   5  36
ENDBRANCH   3   5
BRANCH   1  39
ATOM     39  CA  ILE A   4    -125.497  35.001 135.923  0.00  0.00    +0.149 C 
BRANCH  39  41
ATOM     40  C   SER A   3    -126.329  33.705 134.047  0.00  0.00    +0.243 C 
ATOM     41  N   ILE A   4    -126.471  34.743 134.871  0.00  0.00    -0.297 N 
ATOM     42  H   ILE A   4    -127.288  35.377 134.761  0.00  0.00    +0.150 HD
ATOM     43  O   SER A   3    -125.384  32.926 134.124  0.00  0.00    -0.273 OA
BRANCH  40  44
ATOM     44  CA  SER A   3    -127.401  33.536 132.969  0.00  0.00    +0.178 C 
BRANCH  44  47
ATOM     45  C   LYS A   2    -129.130  32.845 134.533  0.00  0.00    +0.241 C 
ATOM     46  O   LYS A   2    -128.384  31.993 134.997  0.00  0.00    -0.273 OA
ATOM     47  N   SER A   3    -128.755  33.647 133.530  0.00  0.00    -0.295 N 
ATOM     48  H   SER A   3    -129.421  34.348 133.148  0.00  0.00    +0.150 HD
BRANCH  45  49
ATOM     49  CA  LYS A   2    -130.559  33.002 135.079  0.00  0.00    +0.149 C 
BRANCH  49  52
ATOM     50  C   ASP A   1    -130.278  35.122 136.257  0.00  0.00    +0.239 C 
ATOM     51  O   ASP A   1    -129.341  34.690 136.948  0.00  0.00    -0.274 OA
ATOM     52  N   LYS A   2    -130.903  34.399 135.331  0.00  0.00    -0.297 N 
ATOM     53  H   LYS A   2    -131.659  34.842 134.770  0.00  0.00    +0.150 HD
BRANCH  50  54
ATOM     54  CA  ASP A   1    -130.755  36.562 136.395  0.00  0.00    +0.156 C 
BRANCH  54  55
ATOM     55  N   ASP A   1    -131.133  36.880 137.751  0.00  0.00    -0.238 NA
ATOM     56  H   ASP A   1    -130.578  37.581 138.282  0.00  0.00    +0.142 HD
ENDBRANCH  54  55
BRANCH  54  57
ATOM     57  CB  ASP A   1    -129.653  37.495 135.929  0.00  0.00    +0.140 C 
BRANCH  57  58
ATOM     58  CG  ASP A   1    -129.314  37.270 134.472  0.00  0.00    +0.367 C 
ATOM     59  OD2 ASP A   1    -128.199  36.805 134.174  0.00  0.00    -0.246 OA
ATOM     60  OD1 ASP A   1    -130.200  37.535 133.637  0.00  0.00    -0.246 OA
ENDBRANCH  57  58
ENDBRANCH  54  57
ENDBRANCH  50  54
ENDBRANCH  49  52
BRANCH  49  61
ATOM     61  CB  LYS A   2    -131.531  32.361 134.081  0.00  0.00    +0.029 C 
BRANCH  61  62
ATOM     62  CG  LYS A   2    -131.339  30.833 133.985  0.00  0.00    +0.000 C 
BRANCH  62  63
ATOM     63  CD  LYS A   2    -132.584  30.126 133.410  0.00  0.00    -0.024 C 
BRANCH  63  64
ATOM     64  CE  LYS A   2    -132.948  30.637 132.017  0.00  0.00    -0.086 C 
BRANCH  64  65
ATOM     65  NZ  LYS A   2    -131.877  30.331 131.011  0.00  0.00    +0.380 N 
ATOM     66  HZ1 LYS A   2    -130.988  30.785 131.303  0.00  0.00    -0.089 HD
ATOM     67  HZ2 LYS A   2    -131.739  29.302 130.955  0.00  0.00    -0.089 HD
ATOM     68  HZ3 LYS A   2    -132.164  30.695 130.080  0.00  0.00    -0.089 HD
ENDBRANCH  64  65
ENDBRANCH  63  64
ENDBRANCH  62  63
ENDBRANCH  61  62
ENDBRANCH  49  61
ENDBRANCH  45  49
ENDBRANCH  44  47
BRANCH  44  69
ATOM     69  CB  SER A   3    -127.191  34.590 131.866  0.00  0.00    +0.166 C 
BRANCH  69  70
ATOM     70  OG  SER A   3    -127.995  34.270 130.729  0.00  0.00    -0.380 OA
ATOM     71  H   SER A   3    -127.736  33.379 130.384  0.00  0.00    +0.211 HD
ENDBRANCH  69  70
ENDBRANCH  44  69
ENDBRANCH  40  44
ENDBRANCH  39  41
BRANCH  39  72
ATOM     72  CB  ILE A   4    -125.678  36.439 136.512  0.00  0.00    +0.027 C 
ATOM     73  CG2 ILE A   4    -124.898  36.613 137.830  0.00  0.00    +0.002 C 
BRANCH  72  74
ATOM     74  CG1 ILE A   4    -125.147  37.461 135.500  0.00  0.00    +0.002 C 
ATOM     75  CD1 ILE A   4    -125.586  38.891 135.799  0.00  0.00    +0.000 C 
ENDBRANCH  72  74
ENDBRANCH  39  72
ENDBRANCH   1  39
TORSDOF 33
REMARK  Name = ../refined-set-2016/2pqc/2pqc_pocket.pdb
REMARK  243 active torsions:
REMARK  status: ('A' for Active; 'I' for Inactive)
REMARK    1  A    between atoms: _1  and  _3
REMARK    2  A    between atoms: _3  and  _4
REMARK    3  A    between atoms: _3  and  _6
REMARK    4  A    between atoms: _6  and  _7
REMARK    5  A    between atoms: _10  and  _12
REMARK    6  A    between atoms: _12  and  _13
REMARK    7  A    between atoms: _12  and  _15
REMARK    8  A    between atoms: _15  and  _16
REMARK    9  A    between atoms: _16  and  _17
REMARK   10  A    between atoms: _17  and  _18
REMARK   11  A    between atoms: _18  and  _19
REMARK   12  A    between atoms: _23  and  _25
REMARK   13  A    between atoms: _25  and  _26
REMARK   14  A    between atoms: _25  and  _28
REMARK   15  A    between atoms: _28  and  _29
REMARK   16  A    between atoms: _31  and  _33
REMARK   17  A    between atoms: _33  and  _34
REMARK   18  A    between atoms: _33  and  _36
REMARK   19  A    between atoms: _36  and  _37
REMARK   20  A    between atoms: _40  and  _42
REMARK   21  A    between atoms: _42  and  _43
REMARK   22  A    between atoms: _42  and  _45
REMARK   23  A    between atoms: _45  and  _46
REMARK   24  A    between atoms: _48  and  _50
REMARK   25  A    between atoms: _50  and  _51
REMARK   26  A    between atoms: _50  and  _53
REMARK   27  A    between atoms: _53  and  _54
REMARK   28  A    between atoms: _59  and  _61
REMARK   29  A    between atoms: _61  and  _62
REMARK   30  A    between atoms: _61  and  _64
REMARK   31  A    between atoms: _64  and  _65
REMARK   32  A    between atoms: _65  and  _66
REMARK   33  A    between atoms: _66  and  _67
REMARK   34  A    between atoms: _76  and  _78
REMARK   35  A    between atoms: _78  and  _79
REMARK   36  A    between atoms: _78  and  _81
REMARK   37  A    between atoms: _81  and  _82
REMARK   38  A    between atoms: _85  and  _87
REMARK   39  A    between atoms: _87  and  _88
REMARK   40  A    between atoms: _87  and  _90
REMARK   41  A    between atoms: _90  and  _91
REMARK   42  A    between atoms: _96  and  _98
REMARK   43  A    between atoms: _98  and  _99
REMARK   44  A    between atoms: _102  and  _104
REMARK   45  A    between atoms: _104  and  _105
REMARK   46  A    between atoms: _108  and  _110
REMARK   47  A    between atoms: _110  and  _111
REMARK   48  A    between atoms: _110  and  _113
REMARK   49  A    between atoms: _113  and  _114
REMARK   50  A    between atoms: _117  and  _119
REMARK   51  A    between atoms: _119  and  _120
REMARK   52  A    between atoms: _122  and  _124
REMARK   53  A    between atoms: _124  and  _125
REMARK   54  A    between atoms: _124  and  _127
REMARK   55  A    between atoms: _129  and  _131
REMARK   56  A    between atoms: _131  and  _132
REMARK   57  A    between atoms: _131  and  _134
REMARK   58  A    between atoms: _134  and  _135
REMARK   59  A    between atoms: _135  and  _136
REMARK   60  A    between atoms: _136  and  _137
REMARK   61  A    between atoms: _146  and  _148
REMARK   62  A    between atoms: _148  and  _149
REMARK   63  A    between atoms: _148  and  _151
REMARK   64  A    between atoms: _151  and  _152
REMARK   65  A    between atoms: _155  and  _157
REMARK   66  A    between atoms: _157  and  _158
REMARK   67  A    between atoms: _157  and  _160
REMARK   68  A    between atoms: _160  and  _161
REMARK   69  A    between atoms: _163  and  _165
REMARK   70  A    between atoms: _165  and  _166
REMARK   71  A    between atoms: _165  and  _168
REMARK   72  A    between atoms: _168  and  _169
REMARK   73  A    between atoms: _172  and  _174
REMARK   74  A    between atoms: _174  and  _175
REMARK   75  A    between atoms: _174  and  _177
REMARK   76  A    between atoms: _177  and  _178
REMARK   77  A    between atoms: _178  and  _179
REMARK   78  A    between atoms: _179  and  _180
REMARK   79  A    between atoms: _190  and  _191
REMARK   80  A    between atoms: _196  and  _198
REMARK   81  A    between atoms: _198  and  _199
REMARK   82  A    between atoms: _198  and  _201
REMARK   83  A    between atoms: _201  and  _202
REMARK   84  A    between atoms: _202  and  _203
REMARK   85  A    between atoms: _203  and  _204
REMARK   86  A    between atoms: _213  and  _215
REMARK   87  A    between atoms: _215  and  _216
REMARK   88  A    between atoms: _215  and  _218
REMARK   89  A    between atoms: _221  and  _223
REMARK   90  A    between atoms: _223  and  _224
REMARK   91  A    between atoms: _223  and  _226
REMARK   92  A    between atoms: _229  and  _231
REMARK   93  A    between atoms: _231  and  _232
REMARK   94  A    between atoms: _231  and  _234
REMARK   95  A    between atoms: _234  and  _235
REMARK   96  A    between atoms: _235  and  _236
REMARK   97  A    between atoms: _238  and  _240
REMARK   98  A    between atoms: _240  and  _241
REMARK   99  A    between atoms: _244  and  _246
REMARK  100  A    between atoms: _246  and  _247
REMARK  101  A    between atoms: _246  and  _249
REMARK  102  A    between atoms: _249  and  _250
REMARK  103  A    between atoms: _252  and  _254
REMARK  104  A    between atoms: _254  and  _255
REMARK  105  A    between atoms: _258  and  _260
REMARK  106  A    between atoms: _260  and  _261
REMARK  107  A    between atoms: _260  and  _263
REMARK  108  A    between atoms: _263  and  _264
REMARK  109  A    between atoms: _264  and  _265
REMARK  110  A    between atoms: _270  and  _272
REMARK  111  A    between atoms: _272  and  _273
REMARK  112  A    between atoms: _272  and  _275
REMARK  113  A    between atoms: _278  and  _280
REMARK  114  A    between atoms: _280  and  _281
REMARK  115  A    between atoms: _280  and  _283
REMARK  116  A    between atoms: _283  and  _284
REMARK  117  A    between atoms: _284  and  _285
REMARK  118  A    between atoms: _285  and  _286
REMARK  119  A    between atoms: _286  and  _287
REMARK  120  A    between atoms: _291  and  _293
REMARK  121  A    between atoms: _293  and  _294
REMARK  122  A    between atoms: _293  and  _296
REMARK  123  A    between atoms: _296  and  _297
REMARK  124  A    between atoms: _299  and  _301
REMARK  125  A    between atoms: _301  and  _302
REMARK  126  A    between atoms: _305  and  _307
REMARK  127  A    between atoms: _307  and  _308
REMARK  128  A    between atoms: _307  and  _310
REMARK  129  A    between atoms: _310  and  _311
REMARK  130  A    between atoms: _314  and  _316
REMARK  131  A    between atoms: _316  and  _317
REMARK  132  A    between atoms: _316  and  _319
REMARK  133  A    between atoms: _319  and  _320
REMARK  134  A    between atoms: _320  and  _321
REMARK  135  A    between atoms: _321  and  _322
REMARK  136  A    between atoms: _331  and  _333
REMARK  137  A    between atoms: _333  and  _334
REMARK  138  A    between atoms: _333  and  _336
REMARK  139  A    between atoms: _336  and  _337
REMARK  140  A    between atoms: _340  and  _342
REMARK  141  A    between atoms: _342  and  _343
REMARK  142  A    between atoms: _342  and  _345
REMARK  143  A    between atoms: _345  and  _346
REMARK  144  A    between atoms: _351  and  _353
REMARK  145  A    between atoms: _353  and  _354
REMARK  146  A    between atoms: _353  and  _356
REMARK  147  A    between atoms: _356  and  _357
REMARK  148  A    between atoms: _360  and  _362
REMARK  149  A    between atoms: _362  and  _363
REMARK  150  A    between atoms: _362  and  _365
REMARK  151  A    between atoms: _365  and  _366
REMARK  152  A    between atoms: _369  and  _371
REMARK  153  A    between atoms: _371  and  _372
REMARK  154  A    between atoms: _371  and  _374
REMARK  155  A    between atoms: _374  and  _375
REMARK  156  A    between atoms: _377  and  _379
REMARK  157  A    between atoms: _379  and  _380
REMARK  158  A    between atoms: _379  and  _382
REMARK  159  A    between atoms: _382  and  _383
REMARK  160  A    between atoms: _383  and  _384
REMARK  161  A    between atoms: _384  and  _385
REMARK  162  A    between atoms: _394  and  _396
REMARK  163  A    between atoms: _396  and  _397
REMARK  164  A    between atoms: _401  and  _402
REMARK  165  A    between atoms: _407  and  _409
REMARK  166  A    between atoms: _409  and  _410
REMARK  167  A    between atoms: _409  and  _412
REMARK  168  A    between atoms: _412  and  _413
REMARK  169  A    between atoms: _413  and  _414
REMARK  170  A    between atoms: _416  and  _418
REMARK  171  A    between atoms: _418  and  _419
REMARK  172  A    between atoms: _418  and  _421
REMARK  173  A    between atoms: _421  and  _422
REMARK  174  A    between atoms: _425  and  _427
REMARK  175  A    between atoms: _427  and  _428
REMARK  176  A    between atoms: _427  and  _430
REMARK  177  A    between atoms: _430  and  _431
REMARK  178  A    between atoms: _434  and  _436
REMARK  179  A    between atoms: _436  and  _437
REMARK  180  A    between atoms: _436  and  _439
REMARK  181  A    between atoms: _439  and  _440
REMARK  182  A    between atoms: _440  and  _441
REMARK  183  A    between atoms: _445  and  _446
REMARK  184  A    between atoms: _451  and  _453
REMARK  185  A    between atoms: _453  and  _454
REMARK  186  A    between atoms: _453  and  _456
REMARK  187  A    between atoms: _456  and  _457
REMARK  188  A    between atoms: _457  and  _458
REMARK  189  A    between atoms: _461  and  _463
REMARK  190  A    between atoms: _463  and  _464
REMARK  191  A    between atoms: _463  and  _466
REMARK  192  A    between atoms: _466  and  _467
REMARK  193  A    between atoms: _470  and  _472
REMARK  194  A    between atoms: _472  and  _473
REMARK  195  A    between atoms: _472  and  _475
REMARK  196  A    between atoms: _478  and  _480
REMARK  197  A    between atoms: _480  and  _481
REMARK  198  A    between atoms: _480  and  _483
REMARK  199  A    between atoms: _483  and  _484
REMARK  200  A    between atoms: _484  and  _485
REMARK  201  A    between atoms: _485  and  _486
REMARK  202  A    between atoms: _486  and  _487
REMARK  203  A    between atoms: _491  and  _493
REMARK  204  A    between atoms: _493  and  _494
REMARK  205  A    between atoms: _493  and  _496
REMARK  206  A    between atoms: _496  and  _497
REMARK  207  A    between atoms: _497  and  _498
REMARK  208  A    between atoms: _501  and  _503
REMARK  209  A    between atoms: _503  and  _504
REMARK  210  A    between atoms: _503  and  _506
REMARK  211  A    between atoms: _506  and  _507
REMARK  212  A    between atoms: _509  and  _511
REMARK  213  A    between atoms: _511  and  _512
REMARK  214  A    between atoms: _511  and  _514
REMARK  215  A    between atoms: _514  and  _515
REMARK  216  A    between atoms: _515  and  _516
REMARK  217  A    between atoms: _516  and  _517
REMARK  218  A    between atoms: _526  and  _528
REMARK  219  A    between atoms: _528  and  _529
REMARK  220  A    between atoms: _528  and  _531
REMARK  221  A    between atoms: _531  and  _532
REMARK  222  A    between atoms: _535  and  _537
REMARK  223  A    between atoms: _537  and  _538
REMARK  224  A    between atoms: _537  and  _540
REMARK  225  A    between atoms: _540  and  _541
REMARK  226  A    between atoms: _546  and  _548
REMARK  227  A    between atoms: _548  and  _549
REMARK  228  A    between atoms: _548  and  _551
REMARK  229  A    between atoms: _551  and  _552
REMARK  230  A    between atoms: _552  and  _553
REMARK  231  A    between atoms: _553  and  _554
REMARK  232  A    between atoms: _563  and  _565
REMARK  233  A    between atoms: _565  and  _566
REMARK  234  A    between atoms: _565  and  _568
REMARK  235  A    between atoms: _568  and  _569
REMARK  236  A    between atoms: _572  and  _574
REMARK  237  A    between atoms: _574  and  _575
REMARK  238  A    between atoms: _574  and  _577
REMARK  239  A    between atoms: _577  and  _578
REMARK  240  A    between atoms: _581  and  _583
REMARK  241  A    between atoms: _583  and  _584
REMARK  242  A    between atoms: _583  and  _586
REMARK  243  A    between atoms: _586  and  _587
REMARK                            x       y       z     vdW  Elec       q    Type
REMARK                         _______ _______ _______ _____ _____    ______ ____
ROOT
ATOM      1  CA  ASP A   1    -132.276  25.080 135.289  0.00  0.00    +0.144 C 
ENDROOT
BRANCH   1   2
ATOM      2  N   ASP A   1    -133.492  25.050 136.092  0.00  0.00    -0.239 NA
ATOM      3  H   ASP A   1    -134.274  25.696 135.860  0.00  0.00    +0.142 HD
ENDBRANCH   1   2
BRANCH   1   4
ATOM      4  C   ASP A   1    -131.033  25.299 136.154  0.00  0.00    +0.225 C 
ATOM      5  O   ASP A   1    -130.047  24.585 135.999  0.00  0.00    -0.287 OA
ENDBRANCH   1   4
BRANCH   1   6
ATOM      6  CB  ASP A   1    -132.329  26.194 134.237  0.00  0.00    +0.139 C 
BRANCH   6   7
ATOM      7  CG  ASP A   1    -133.164  25.827 133.014  0.00  0.00    +0.367 C 
ATOM      8  OD2 ASP A   1    -133.862  24.784 133.014  0.00  0.00    -0.246 OA
ATOM      9  OD1 ASP A   1    -133.132  26.611 132.044  0.00  0.00    -0.246 OA
ENDBRANCH   6   7
ENDBRANCH   1   6
TORSDOF 4
REMARK  Name = ../refined-set-2016/2pqc/2pqc_pocket.pdb
REMARK  243 active torsions:
REMARK  status: ('A' for Active; 'I' for Inactive)
REMARK    1  A    between atoms: _1  and  _3
REMARK    2  A    between atoms: _3  and  _4
REMARK    3  A    between atoms: _3  and  _6
REMARK    4  A    between atoms: _6  and  _7
REMARK    5  A    between atoms: _10  and  _12
REMARK    6  A    between atoms: _12  and  _13
REMARK    7  A    between atoms: _12  and  _15
REMARK    8  A    between atoms: _15  and  _16
REMARK    9  A    between atoms: _16  and  _17
REMARK   10  A    between atoms: _17  and  _18
REMARK   11  A    between atoms: _18  and  _19
REMARK   12  A    between atoms: _23  and  _25
REMARK   13  A    between atoms: _25  and  _26
REMARK   14  A    between atoms: _25  and  _28
REMARK   15  A    between atoms: _28  and  _29
REMARK   16  A    between atoms: _31  and  _33
REMARK   17  A    between atoms: _33  and  _34
REMARK   18  A    between atoms: _33  and  _36
REMARK   19  A    between atoms: _36  and  _37
REMARK   20  A    between atoms: _40  and  _42
REMARK   21  A    between atoms: _42  and  _43
REMARK   22  A    between atoms: _42  and  _45
REMARK   23  A    between atoms: _45  and  _46
REMARK   24  A    between atoms: _48  and  _50
REMARK   25  A    between atoms: _50  and  _51
REMARK   26  A    between atoms: _50  and  _53
REMARK   27  A    between atoms: _53  and  _54
REMARK   28  A    between atoms: _59  and  _61
REMARK   29  A    between atoms: _61  and  _62
REMARK   30  A    between atoms: _61  and  _64
REMARK   31  A    between atoms: _64  and  _65
REMARK   32  A    between atoms: _65  and  _66
REMARK   33  A    between atoms: _66  and  _67
REMARK   34  A    between atoms: _76  and  _78
REMARK   35  A    between atoms: _78  and  _79
REMARK   36  A    between atoms: _78  and  _81
REMARK   37  A    between atoms: _81  and  _82
REMARK   38  A    between atoms: _85  and  _87
REMARK   39  A    between atoms: _87  and  _88
REMARK   40  A    between atoms: _87  and  _90
REMARK   41  A    between atoms: _90  and  _91
REMARK   42  A    between atoms: _96  and  _98
REMARK   43  A    between atoms: _98  and  _99
REMARK   44  A    between atoms: _102  and  _104
REMARK   45  A    between atoms: _104  and  _105
REMARK   46  A    between atoms: _108  and  _110
REMARK   47  A    between atoms: _110  and  _111
REMARK   48  A    between atoms: _110  and  _113
REMARK   49  A    between atoms: _113  and  _114
REMARK   50  A    between atoms: _117  and  _119
REMARK   51  A    between atoms: _119  and  _120
REMARK   52  A    between atoms: _122  and  _124
REMARK   53  A    between atoms: _124  and  _125
REMARK   54  A    between atoms: _124  and  _127
REMARK   55  A    between atoms: _129  and  _131
REMARK   56  A    between atoms: _131  and  _132
REMARK   57  A    between atoms: _131  and  _134
REMARK   58  A    between atoms: _134  and  _135
REMARK   59  A    between atoms: _135  and  _136
REMARK   60  A    between atoms: _136  and  _137
REMARK   61  A    between atoms: _146  and  _148
REMARK   62  A    between atoms: _148  and  _149
REMARK   63  A    between atoms: _148  and  _151
REMARK   64  A    between atoms: _151  and  _152
REMARK   65  A    between atoms: _155  and  _157
REMARK   66  A    between atoms: _157  and  _158
REMARK   67  A    between atoms: _157  and  _160
REMARK   68  A    between atoms: _160  and  _161
REMARK   69  A    between atoms: _163  and  _165
REMARK   70  A    between atoms: _165  and  _166
REMARK   71  A    between atoms: _165  and  _168
REMARK   72  A    between atoms: _168  and  _169
REMARK   73  A    between atoms: _172  and  _174
REMARK   74  A    between atoms: _174  and  _175
REMARK   75  A    between atoms: _174  and  _177
REMARK   76  A    between atoms: _177  and  _178
REMARK   77  A    between atoms: _178  and  _179
REMARK   78  A    between atoms: _179  and  _180
REMARK   79  A    between atoms: _190  and  _191
REMARK   80  A    between atoms: _196  and  _198
REMARK   81  A    between atoms: _198  and  _199
REMARK   82  A    between atoms: _198  and  _201
REMARK   83  A    between atoms: _201  and  _202
REMARK   84  A    between atoms: _202  and  _203
REMARK   85  A    between atoms: _203  and  _204
REMARK   86  A    between atoms: _213  and  _215
REMARK   87  A    between atoms: _215  and  _216
REMARK   88  A    between atoms: _215  and  _218
REMARK   89  A    between atoms: _221  and  _223
REMARK   90  A    between atoms: _223  and  _224
REMARK   91  A    between atoms: _223  and  _226
REMARK   92  A    between atoms: _229  and  _231
REMARK   93  A    between atoms: _231  and  _232
REMARK   94  A    between atoms: _231  and  _234
REMARK   95  A    between atoms: _234  and  _235
REMARK   96  A    between atoms: _235  and  _236
REMARK   97  A    between atoms: _238  and  _240
REMARK   98  A    between atoms: _240  and  _241
REMARK   99  A    between atoms: _244  and  _246
REMARK  100  A    between atoms: _246  and  _247
REMARK  101  A    between atoms: _246  and  _249
REMARK  102  A    between atoms: _249  and  _250
REMARK  103  A    between atoms: _252  and  _254
REMARK  104  A    between atoms: _254  and  _255
REMARK  105  A    between atoms: _258  and  _260
REMARK  106  A    between atoms: _260  and  _261
REMARK  107  A    between atoms: _260  and  _263
REMARK  108  A    between atoms: _263  and  _264
REMARK  109  A    between atoms: _264  and  _265
REMARK  110  A    between atoms: _270  and  _272
REMARK  111  A    between atoms: _272  and  _273
REMARK  112  A    between atoms: _272  and  _275
REMARK  113  A    between atoms: _278  and  _280
REMARK  114  A    between atoms: _280  and  _281
REMARK  115  A    between atoms: _280  and  _283
REMARK  116  A    between atoms: _283  and  _284
REMARK  117  A    between atoms: _284  and  _285
REMARK  118  A    between atoms: _285  and  _286
REMARK  119  A    between atoms: _286  and  _287
REMARK  120  A    between atoms: _291  and  _293
REMARK  121  A    between atoms: _293  and  _294
REMARK  122  A    between atoms: _293  and  _296
REMARK  123  A    between atoms: _296  and  _297
REMARK  124  A    between atoms: _299  and  _301
REMARK  125  A    between atoms: _301  and  _302
REMARK  126  A    between atoms: _305  and  _307
REMARK  127  A    between atoms: _307  and  _308
REMARK  128  A    between atoms: _307  and  _310
REMARK  129  A    between atoms: _310  and  _311
REMARK  130  A    between atoms: _314  and  _316
REMARK  131  A    between atoms: _316  and  _317
REMARK  132  A    between atoms: _316  and  _319
REMARK  133  A    between atoms: _319  and  _320
REMARK  134  A    between atoms: _320  and  _321
REMARK  135  A    between atoms: _321  and  _322
REMARK  136  A    between atoms: _331  and  _333
REMARK  137  A    between atoms: _333  and  _334
REMARK  138  A    between atoms: _333  and  _336
REMARK  139  A    between atoms: _336  and  _337
REMARK  140  A    between atoms: _340  and  _342
REMARK  141  A    between atoms: _342  and  _343
REMARK  142  A    between atoms: _342  and  _345
REMARK  143  A    between atoms: _345  and  _346
REMARK  144  A    between atoms: _351  and  _353
REMARK  145  A    between atoms: _353  and  _354
REMARK  146  A    between atoms: _353  and  _356
REMARK  147  A    between atoms: _356  and  _357
REMARK  148  A    between atoms: _360  and  _362
REMARK  149  A    between atoms: _362  and  _363
REMARK  150  A    between atoms: _362  and  _365
REMARK  151  A    between atoms: _365  and  _366
REMARK  152  A    between atoms: _369  and  _371
REMARK  153  A    between atoms: _371  and  _372
REMARK  154  A    between atoms: _371  and  _374
REMARK  155  A    between atoms: _374  and  _375
REMARK  156  A    between atoms: _377  and  _379
REMARK  157  A    between atoms: _379  and  _380
REMARK  158  A    between atoms: _379  and  _382
REMARK  159  A    between atoms: _382  and  _383
REMARK  160  A    between atoms: _383  and  _384
REMARK  161  A    between atoms: _384  and  _385
REMARK  162  A    between atoms: _394  and  _396
REMARK  163  A    between atoms: _396  and  _397
REMARK  164  A    between atoms: _401  and  _402
REMARK  165  A    between atoms: _407  and  _409
REMARK  166  A    between atoms: _409  and  _410
REMARK  167  A    between atoms: _409  and  _412
REMARK  168  A    between atoms: _412  and  _413
REMARK  169  A    between atoms: _413  and  _414
REMARK  170  A    between atoms: _416  and  _418
REMARK  171  A    between atoms: _418  and  _419
REMARK  172  A    between atoms: _418  and  _421
REMARK  173  A    between atoms: _421  and  _422
REMARK  174  A    between atoms: _425  and  _427
REMARK  175  A    between atoms: _427  and  _428
REMARK  176  A    between atoms: _427  and  _430
REMARK  177  A    between atoms: _430  and  _431
REMARK  178  A    between atoms: _434  and  _436
REMARK  179  A    between atoms: _436  and  _437
REMARK  180  A    between atoms: _436  and  _439
REMARK  181  A    between atoms: _439  and  _440
REMARK  182  A    between atoms: _440  and  _441
REMARK  183  A    between atoms: _445  and  _446
REMARK  184  A    between atoms: _451  and  _453
REMARK  185  A    between atoms: _453  and  _454
REMARK  186  A    between atoms: _453  and  _456
REMARK  187  A    between atoms: _456  and  _457
REMARK  188  A    between atoms: _457  and  _458
REMARK  189  A    between atoms: _461  and  _463
REMARK  190  A    between atoms: _463  and  _464
REMARK  191  A    between atoms: _463  and  _466
REMARK  192  A    between atoms: _466  and  _467
REMARK  193  A    between atoms: _470  and  _472
REMARK  194  A    between atoms: _472  and  _473
REMARK  195  A    between atoms: _472  and  _475
REMARK  196  A    between atoms: _478  and  _480
REMARK  197  A    between atoms: _480  and  _481
REMARK  198  A    between atoms: _480  and  _483
REMARK  199  A    between atoms: _483  and  _484
REMARK  200  A    between atoms: _484  and  _485
REMARK  201  A    between atoms: _485  and  _486
REMARK  202  A    between atoms: _486  and  _487
REMARK  203  A    between atoms: _491  and  _493
REMARK  204  A    between atoms: _493  and  _494
REMARK  205  A    between atoms: _493  and  _496
REMARK  206  A    between atoms: _496  and  _497
REMARK  207  A    between atoms: _497  and  _498
REMARK  208  A    between atoms: _501  and  _503
REMARK  209  A    between atoms: _503  and  _504
REMARK  210  A    between atoms: _503  and  _506
REMARK  211  A    between atoms: _506  and  _507
REMARK  212  A    between atoms: _509  and  _511
REMARK  213  A    between atoms: _511  and  _512
REMARK  214  A    between atoms: _511  and  _514
REMARK  215  A    between atoms: _514  and  _515
REMARK  216  A    between atoms: _515  and  _516
REMARK  217  A    between atoms: _516  and  _517
REMARK  218  A    between atoms: _526  and  _528
REMARK  219  A    between atoms: _528  and  _529
REMARK  220  A    between atoms: _528  and  _531
REMARK  221  A    between atoms: _531  and  _532
REMARK  222  A    between atoms: _535  and  _537
REMARK  223  A    between atoms: _537  and  _538
REMARK  224  A    between atoms: _537  and  _540
REMARK  225  A    between atoms: _540  and  _541
REMARK  226  A    between atoms: _546  and  _548
REMARK  227  A    between atoms: _548  and  _549
REMARK  228  A    between atoms: _548  and  _551
REMARK  229  A    between atoms: _551  and  _552
REMARK  230  A    between atoms: _552  and  _553
REMARK  231  A    between atoms: _553  and  _554
REMARK  232  A    between atoms: _563  and  _565
REMARK  233  A    between atoms: _565  and  _566
REMARK  234  A    between atoms: _565  and  _568
REMARK  235  A    between atoms: _568  and  _569
REMARK  236  A    between atoms: _572  and  _574
REMARK  237  A    between atoms: _574  and  _575
REMARK  238  A    between atoms: _574  and  _577
REMARK  239  A    between atoms: _577  and  _578
REMARK  240  A    between atoms: _581  and  _583
REMARK  241  A    between atoms: _583  and  _584
REMARK  242  A    between atoms: _583  and  _586
REMARK  243  A    between atoms: _586  and  _587
REMARK                            x       y       z     vdW  Elec       q    Type
REMARK                         _______ _______ _______ _____ _____    ______ ____
ROOT
ATOM      1  CA  GLY A   5    -125.607  24.559 132.024  0.00  0.00    +0.176 C 
ENDROOT
BRANCH   1   3
ATOM      2  C   THR A   4    -125.803  26.133 130.237  0.00  0.00    +0.243 C 
ATOM      3  N   GLY A   5    -126.412  25.407 131.162  0.00  0.00    -0.295 N 
ATOM      4  H   GLY A   5    -127.446  25.443 131.269  0.00  0.00    +0.150 HD
ATOM      5  O   THR A   4    -124.579  26.122 130.096  0.00  0.00    -0.273 OA
BRANCH   2   6
ATOM      6  CA  THR A   4    -126.694  26.997 129.350  0.00  0.00    +0.176 C 
BRANCH   6   8
ATOM      7  C   ALA A   3    -127.501  25.126 128.057  0.00  0.00    +0.241 C 
ATOM      8  N   THR A   4    -127.782  26.198 128.790  0.00  0.00    -0.295 N 
ATOM      9  H   THR A   4    -128.771  26.467 128.964  0.00  0.00    +0.150 HD
ATOM     10  O   ALA A   3    -126.339  24.781 127.802  0.00  0.00    -0.273 OA
BRANCH   7  11
ATOM     11  CA  ALA A   3    -128.687  24.335 127.510  0.00  0.00    +0.149 C 
ATOM     12  CB  ALA A   3    -129.127  24.937 126.205  0.00  0.00    +0.031 C 
BRANCH  11  15
ATOM     13  C   ALA A   2    -129.678  23.677 129.630  0.00  0.00    +0.241 C 
ATOM     14  O   ALA A   2    -128.633  23.105 129.983  0.00  0.00    -0.273 OA
ATOM     15  N   ALA A   3    -129.798  24.323 128.472  0.00  0.00    -0.297 N 
ATOM     16  H   ALA A   3    -130.682  24.822 128.247  0.00  0.00    +0.150 HD
BRANCH  13  17
ATOM     17  CA  ALA A   2    -130.875  23.745 130.572  0.00  0.00    +0.149 C 
ATOM     18  CB  ALA A   2    -130.371  24.037 132.011  0.00  0.00    +0.031 C 
BRANCH  17  20
ATOM     19  C   ASN A   1    -132.962  22.651 129.876  0.00  0.00    +0.239 C 
ATOM     20  N   ALA A   2    -131.875  22.671 130.655  0.00  0.00    -0.297 N 
ATOM     21  H   ALA A   2    -131.733  21.902 131.341  0.00  0.00    +0.150 HD
ATOM     22  O   ASN A   1    -133.143  23.432 128.942  0.00  0.00    -0.274 OA
BRANCH  19  23
ATOM     23  CA  ASN A   1    -134.013  21.586 130.183  0.00  0.00    +0.154 C 
BRANCH  23  24
ATOM     24  N   ASN A   1    -133.619  20.707 131.298  0.00  0.00    -0.238 NA
ATOM     25  H   ASN A   1    -133.780  21.031 132.273  0.00  0.00    +0.142 HD
ENDBRANCH  23  24
BRANCH  23  26
ATOM     26  CB  ASN A   1    -135.311  22.316 130.586  0.00  0.00    +0.111 C 
BRANCH  26  27
ATOM     27  CG  ASN A   1    -136.027  22.968 129.419  0.00  0.00    +0.221 C 
ATOM     28  OD1 ASN A   1    -136.124  24.203 129.342  0.00  0.00    -0.275 OA
ATOM     29  ND2 ASN A   1    -136.548  22.145 128.505  0.00  0.00    -0.329 N 
ATOM     30 HD21 ASN A   1    -136.442  21.116 128.611  0.00  0.00    +0.145 HD
ATOM     31 HD22 ASN A   1    -137.060  22.533 127.687  0.00  0.00    +0.145 HD
ENDBRANCH  26  27
ENDBRANCH  23  26
ENDBRANCH  19  23
ENDBRANCH  17  20
ENDBRANCH  13  17
ENDBRANCH  11  15
ENDBRANCH   7  11
ENDBRANCH   6   8
BRANCH   6  32
ATOM     32  CB  THR A   4    -127.228  28.161 130.189  0.00  0.00    +0.137 C 
ATOM     33  CG2 THR A   4    -126.070  28.944 130.780  0.00  0.00    +0.034 C 
BRANCH  32  34
ATOM     34  OG1 THR A   4    -128.014  29.024 129.362  0.00  0.00    -0.382 OA
ATOM     35  HG1 THR A   4    -128.773  28.514 128.983  0.00  0.00    +0.210 HD
ENDBRANCH  32  34
ENDBRANCH   6  32
ENDBRANCH   2   6
ENDBRANCH   1   3
BRANCH   1  36
ATOM     36  C   GLY A   5    -124.875  23.490 131.235  0.00  0.00    +0.243 C 
ATOM     37  O   GLY A   5    -123.673  23.257 131.422  0.00  0.00    -0.273 OA
ATOM     38  N   CYS A   6    -125.595  22.839 130.331  0.00  0.00    -0.296 N 
ATOM     39  H   CYS A   6    -126.591  23.100 130.187  0.00  0.00    +0.150 HD
BRANCH  38  40
ATOM     40  CA  CYS A   6    -125.014  21.765 129.537  0.00  0.00    +0.160 C 
BRANCH  40  41
ATOM     41  C   CYS A   6    -123.857  22.217 128.656  0.00  0.00    +0.242 C 
ATOM     42  O   CYS A   6    -122.761  21.648 128.713  0.00  0.00    -0.273 OA
ATOM     43  N   ARG A   7    -124.082  23.248 127.855  0.00  0.00    -0.297 N 
ATOM     44  H   ARG A   7    -125.000  23.736 127.876  0.00  0.00    +0.150 HD
BRANCH  43  45
ATOM     45  CA  ARG A   7    -123.035  23.693 126.945  0.00  0.00    +0.149 C 
BRANCH  45  46
ATOM     46  C   ARG A   7    -121.823  24.275 127.638  0.00  0.00    +0.241 C 
ATOM     47  N   LEU A   8    -122.042  25.067 128.682  0.00  0.00    -0.298 N 
ATOM     48  H   LEU A   8    -123.011  25.284 128.990  0.00  0.00    +0.150 HD
ATOM     49  O   ARG A   7    -120.684  24.009 127.243  0.00  0.00    -0.273 OA
BRANCH  47  50
ATOM     50  CA  LEU A   8    -120.893  25.625 129.386  0.00  0.00    +0.137 C 
BRANCH  50  51
ATOM     51  C   LEU A   8    -120.125  24.530 130.131  0.00  0.00    +0.227 C 
ATOM     52  O   LEU A   8    -118.882  24.543 130.171  0.00  0.00    -0.286 OA
ENDBRANCH  50  51
BRANCH  50  53
ATOM     53  CB  LEU A   8    -121.334  26.731 130.357  0.00  0.00    +0.028 C 
BRANCH  53  54
ATOM     54  CG  LEU A   8    -121.416  28.162 129.789  0.00  0.00    +0.002 C 
ATOM     55  CD2 LEU A   8    -121.817  29.118 130.938  0.00  0.00    +0.000 C 
ATOM     56  CD1 LEU A   8    -122.422  28.242 128.608  0.00  0.00    +0.000 C 
ENDBRANCH  53  54
ENDBRANCH  50  53
ENDBRANCH  47  50
ENDBRANCH  45  46
BRANCH  45  57
ATOM     57  CB  ARG A   7    -123.623  24.662 125.946  0.00  0.00    +0.033 C 
BRANCH  57  58
ATOM     58  CG  ARG A   7    -124.606  23.971 124.989  0.00  0.00    +0.045 C 
BRANCH  58  59
ATOM     59  CD  ARG A   7    -124.881  24.860 123.833  0.00  0.00    +0.174 C 
BRANCH  59  60
ATOM     60  NE  ARG A   7    -125.836  24.331 122.851  0.00  0.00    -0.265 N 
ATOM     61  CZ  ARG A   7    -126.970  24.950 122.510  0.00  0.00    +0.342 C 
ATOM     62  NH2 ARG A   7    -127.306  26.094 123.092  0.00  0.00    -0.292 N 
ATOM     63 HH21 ARG A   7    -126.686  26.511 123.816  0.00  0.00    +0.255 HD
ATOM     64 HH22 ARG A   7    -128.189  26.574 122.825  0.00  0.00    +0.255 HD
ATOM     65  NH1 ARG A   7    -127.726  24.482 121.526  0.00  0.00    -0.292 N 
ATOM     66 HH11 ARG A   7    -128.607  24.972 121.269  0.00  0.00    +0.255 HD
ATOM     67 HH12 ARG A   7    -127.438  23.625 121.011  0.00  0.00    +0.255 HD
ATOM     68  HE  ARG A   7    -125.617  23.422 122.395  0.00  0.00    +0.259 HD
ENDBRANCH  59  60
ENDBRANCH  58  59
ENDBRANCH  57  58
ENDBRANCH  45  57
ENDBRANCH  43  45
ENDBRANCH  40  41
BRANCH  40  69
ATOM     69  CB  CYS A   6    -126.108  21.131 128.676  0.00  0.00    +0.098 C 
ATOM     70  SG  CYS A   6    -125.581  19.737 127.681  0.00  0.00    -0.080 S 
ENDBRANCH  40  69
ENDBRANCH  38  40
ENDBRANCH   1  36
TORSDOF 27
REMARK  Name = ../refined-set-2016/2pqc/2pqc_pocket.pdb
REMARK  243 active torsions:
REMARK  status: ('A' for Active; 'I' for Inactive)
REMARK    1  A    between atoms: _1  and  _3
REMARK    2  A    between atoms: _3  and  _4
REMARK    3  A    between atoms: _3  and  _6
REMARK    4  A    between atoms: _6  and  _7
REMARK    5  A    between atoms: _10  and  _12
REMARK    6  A    between atoms: _12  and  _13
REMARK    7  A    between atoms: _12  and  _15
REMARK    8  A    between atoms: _15  and  _16
REMARK    9  A    between atoms: _16  and  _17
REMARK   10  A    between atoms: _17  and  _18
REMARK   11  A    between atoms: _18  and  _19
REMARK   12  A    between atoms: _23  and  _25
REMARK   13  A    between atoms: _25  and  _26
REMARK   14  A    between atoms: _25  and  _28
REMARK   15  A    between atoms: _28  and  _29
REMARK   16  A    between atoms: _31  and  _33
REMARK   17  A    between atoms: _33  and  _34
REMARK   18  A    between atoms: _33  and  _36
REMARK   19  A    between atoms: _36  and  _37
REMARK   20  A    between atoms: _40  and  _42
REMARK   21  A    between atoms: _42  and  _43
REMARK   22  A    between atoms: _42  and  _45
REMARK   23  A    between atoms: _45  and  _46
REMARK   24  A    between atoms: _48  and  _50
REMARK   25  A    between atoms: _50  and  _51
REMARK   26  A    between atoms: _50  and  _53
REMARK   27  A    between atoms: _53  and  _54
REMARK   28  A    between atoms: _59  and  _61
REMARK   29  A    between atoms: _61  and  _62
REMARK   30  A    between atoms: _61  and  _64
REMARK   31  A    between atoms: _64  and  _65
REMARK   32  A    between atoms: _65  and  _66
REMARK   33  A    between atoms: _66  and  _67
REMARK   34  A    between atoms: _76  and  _78
REMARK   35  A    between atoms: _78  and  _79
REMARK   36  A    between atoms: _78  and  _81
REMARK   37  A    between atoms: _81  and  _82
REMARK   38  A    between atoms: _85  and  _87
REMARK   39  A    between atoms: _87  and  _88
REMARK   40  A    between atoms: _87  and  _90
REMARK   41  A    between atoms: _90  and  _91
REMARK   42  A    between atoms: _96  and  _98
REMARK   43  A    between atoms: _98  and  _99
REMARK   44  A    between atoms: _102  and  _104
REMARK   45  A    between atoms: _104  and  _105
REMARK   46  A    between atoms: _108  and  _110
REMARK   47  A    between atoms: _110  and  _111
REMARK   48  A    between atoms: _110  and  _113
REMARK   49  A    between atoms: _113  and  _114
REMARK   50  A    between atoms: _117  and  _119
REMARK   51  A    between atoms: _119  and  _120
REMARK   52  A    between atoms: _122  and  _124
REMARK   53  A    between atoms: _124  and  _125
REMARK   54  A    between atoms: _124  and  _127
REMARK   55  A    between atoms: _129  and  _131
REMARK   56  A    between atoms: _131  and  _132
REMARK   57  A    between atoms: _131  and  _134
REMARK   58  A    between atoms: _134  and  _135
REMARK   59  A    between atoms: _135  and  _136
REMARK   60  A    between atoms: _136  and  _137
REMARK   61  A    between atoms: _146  and  _148
REMARK   62  A    between atoms: _148  and  _149
REMARK   63  A    between atoms: _148  and  _151
REMARK   64  A    between atoms: _151  and  _152
REMARK   65  A    between atoms: _155  and  _157
REMARK   66  A    between atoms: _157  and  _158
REMARK   67  A    between atoms: _157  and  _160
REMARK   68  A    between atoms: _160  and  _161
REMARK   69  A    between atoms: _163  and  _165
REMARK   70  A    between atoms: _165  and  _166
REMARK   71  A    between atoms: _165  and  _168
REMARK   72  A    between atoms: _168  and  _169
REMARK   73  A    between atoms: _172  and  _174
REMARK   74  A    between atoms: _174  and  _175
REMARK   75  A    between atoms: _174  and  _177
REMARK   76  A    between atoms: _177  and  _178
REMARK   77  A    between atoms: _178  and  _179
REMARK   78  A    between atoms: _179  and  _180
REMARK   79  A    between atoms: _190  and  _191
REMARK   80  A    between atoms: _196  and  _198
REMARK   81  A    between atoms: _198  and  _199
REMARK   82  A    between atoms: _198  and  _201
REMARK   83  A    between atoms: _201  and  _202
REMARK   84  A    between atoms: _202  and  _203
REMARK   85  A    between atoms: _203  and  _204
REMARK   86  A    between atoms: _213  and  _215
REMARK   87  A    between atoms: _215  and  _216
REMARK   88  A    between atoms: _215  and  _218
REMARK   89  A    between atoms: _221  and  _223
REMARK   90  A    between atoms: _223  and  _224
REMARK   91  A    between atoms: _223  and  _226
REMARK   92  A    between atoms: _229  and  _231
REMARK   93  A    between atoms: _231  and  _232
REMARK   94  A    between atoms: _231  and  _234
REMARK   95  A    between atoms: _234  and  _235
REMARK   96  A    between atoms: _235  and  _236
REMARK   97  A    between atoms: _238  and  _240
REMARK   98  A    between atoms: _240  and  _241
REMARK   99  A    between atoms: _244  and  _246
REMARK  100  A    between atoms: _246  and  _247
REMARK  101  A    between atoms: _246  and  _249
REMARK  102  A    between atoms: _249  and  _250
REMARK  103  A    between atoms: _252  and  _254
REMARK  104  A    between atoms: _254  and  _255
REMARK  105  A    between atoms: _258  and  _260
REMARK  106  A    between atoms: _260  and  _261
REMARK  107  A    between atoms: _260  and  _263
REMARK  108  A    between atoms: _263  and  _264
REMARK  109  A    between atoms: _264  and  _265
REMARK  110  A    between atoms: _270  and  _272
REMARK  111  A    between atoms: _272  and  _273
REMARK  112  A    between atoms: _272  and  _275
REMARK  113  A    between atoms: _278  and  _280
REMARK  114  A    between atoms: _280  and  _281
REMARK  115  A    between atoms: _280  and  _283
REMARK  116  A    between atoms: _283  and  _284
REMARK  117  A    between atoms: _284  and  _285
REMARK  118  A    between atoms: _285  and  _286
REMARK  119  A    between atoms: _286  and  _287
REMARK  120  A    between atoms: _291  and  _293
REMARK  121  A    between atoms: _293  and  _294
REMARK  122  A    between atoms: _293  and  _296
REMARK  123  A    between atoms: _296  and  _297
REMARK  124  A    between atoms: _299  and  _301
REMARK  125  A    between atoms: _301  and  _302
REMARK  126  A    between atoms: _305  and  _307
REMARK  127  A    between atoms: _307  and  _308
REMARK  128  A    between atoms: _307  and  _310
REMARK  129  A    between atoms: _310  and  _311
REMARK  130  A    between atoms: _314  and  _316
REMARK  131  A    between atoms: _316  and  _317
REMARK  132  A    between atoms: _316  and  _319
REMARK  133  A    between atoms: _319  and  _320
REMARK  134  A    between atoms: _320  and  _321
REMARK  135  A    between atoms: _321  and  _322
REMARK  136  A    between atoms: _331  and  _333
REMARK  137  A    between atoms: _333  and  _334
REMARK  138  A    between atoms: _333  and  _336
REMARK  139  A    between atoms: _336  and  _337
REMARK  140  A    between atoms: _340  and  _342
REMARK  141  A    between atoms: _342  and  _343
REMARK  142  A    between atoms: _342  and  _345
REMARK  143  A    between atoms: _345  and  _346
REMARK  144  A    between atoms: _351  and  _353
REMARK  145  A    between atoms: _353  and  _354
REMARK  146  A    between atoms: _353  and  _356
REMARK  147  A    between atoms: _356  and  _357
REMARK  148  A    between atoms: _360  and  _362
REMARK  149  A    between atoms: _362  and  _363
REMARK  150  A    between atoms: _362  and  _365
REMARK  151  A    between atoms: _365  and  _366
REMARK  152  A    between atoms: _369  and  _371
REMARK  153  A    between atoms: _371  and  _372
REMARK  154  A    between atoms: _371  and  _374
REMARK  155  A    between atoms: _374  and  _375
REMARK  156  A    between atoms: _377  and  _379
REMARK  157  A    between atoms: _379  and  _380
REMARK  158  A    between atoms: _379  and  _382
REMARK  159  A    between atoms: _382  and  _383
REMARK  160  A    between atoms: _383  and  _384
REMARK  161  A    between atoms: _384  and  _385
REMARK  162  A    between atoms: _394  and  _396
REMARK  163  A    between atoms: _396  and  _397
REMARK  164  A    between atoms: _401  and  _402
REMARK  165  A    between atoms: _407  and  _409
REMARK  166  A    between atoms: _409  and  _410
REMARK  167  A    between atoms: _409  and  _412
REMARK  168  A    between atoms: _412  and  _413
REMARK  169  A    between atoms: _413  and  _414
REMARK  170  A    between atoms: _416  and  _418
REMARK  171  A    between atoms: _418  and  _419
REMARK  172  A    between atoms: _418  and  _421
REMARK  173  A    between atoms: _421  and  _422
REMARK  174  A    between atoms: _425  and  _427
REMARK  175  A    between atoms: _427  and  _428
REMARK  176  A    between atoms: _427  and  _430
REMARK  177  A    between atoms: _430  and  _431
REMARK  178  A    between atoms: _434  and  _436
REMARK  179  A    between atoms: _436  and  _437
REMARK  180  A    between atoms: _436  and  _439
REMARK  181  A    between atoms: _439  and  _440
REMARK  182  A    between atoms: _440  and  _441
REMARK  183  A    between atoms: _445  and  _446
REMARK  184  A    between atoms: _451  and  _453
REMARK  185  A    between atoms: _453  and  _454
REMARK  186  A    between atoms: _453  and  _456
REMARK  187  A    between atoms: _456  and  _457
REMARK  188  A    between atoms: _457  and  _458
REMARK  189  A    between atoms: _461  and  _463
REMARK  190  A    between atoms: _463  and  _464
REMARK  191  A    between atoms: _463  and  _466
REMARK  192  A    between atoms: _466  and  _467
REMARK  193  A    between atoms: _470  and  _472
REMARK  194  A    between atoms: _472  and  _473
REMARK  195  A    between atoms: _472  and  _475
REMARK  196  A    between atoms: _478  and  _480
REMARK  197  A    between atoms: _480  and  _481
REMARK  198  A    between atoms: _480  and  _483
REMARK  199  A    between atoms: _483  and  _484
REMARK  200  A    between atoms: _484  and  _485
REMARK  201  A    between atoms: _485  and  _486
REMARK  202  A    between atoms: _486  and  _487
REMARK  203  A    between atoms: _491  and  _493
REMARK  204  A    between atoms: _493  and  _494
REMARK  205  A    between atoms: _493  and  _496
REMARK  206  A    between atoms: _496  and  _497
REMARK  207  A    between atoms: _497  and  _498
REMARK  208  A    between atoms: _501  and  _503
REMARK  209  A    between atoms: _503  and  _504
REMARK  210  A    between atoms: _503  and  _506
REMARK  211  A    between atoms: _506  and  _507
REMARK  212  A    between atoms: _509  and  _511
REMARK  213  A    between atoms: _511  and  _512
REMARK  214  A    between atoms: _511  and  _514
REMARK  215  A    between atoms: _514  and  _515
REMARK  216  A    between atoms: _515  and  _516
REMARK  217  A    between atoms: _516  and  _517
REMARK  218  A    between atoms: _526  and  _528
REMARK  219  A    between atoms: _528  and  _529
REMARK  220  A    between atoms: _528  and  _531
REMARK  221  A    between atoms: _531  and  _532
REMARK  222  A    between atoms: _535  and  _537
REMARK  223  A    between atoms: _537  and  _538
REMARK  224  A    between atoms: _537  and  _540
REMARK  225  A    between atoms: _540  and  _541
REMARK  226  A    between atoms: _546  and  _548
REMARK  227  A    between atoms: _548  and  _549
REMARK  228  A    between atoms: _548  and  _551
REMARK  229  A    between atoms: _551  and  _552
REMARK  230  A    between atoms: _552  and  _553
REMARK  231  A    between atoms: _553  and  _554
REMARK  232  A    between atoms: _563  and  _565
REMARK  233  A    between atoms: _565  and  _566
REMARK  234  A    between atoms: _565  and  _568
REMARK  235  A    between atoms: _568  and  _569
REMARK  236  A    between atoms: _572  and  _574
REMARK  237  A    between atoms: _574  and  _575
REMARK  238  A    between atoms: _574  and  _577
REMARK  239  A    between atoms: _577  and  _578
REMARK  240  A    between atoms: _581  and  _583
REMARK  241  A    between atoms: _583  and  _584
REMARK  242  A    between atoms: _583  and  _586
REMARK  243  A    between atoms: _586  and  _587
REMARK                            x       y       z     vdW  Elec       q    Type
REMARK                         _______ _______ _______ _____ _____    ______ ____
ROOT
ATOM      1  C   SER A   1    -134.777  19.500 124.375  0.00  0.00    +0.241 C 
ATOM      2  N   LEU A   2    -133.999  19.374 125.445  0.00  0.00    -0.298 N 
ATOM      3  H   LEU A   2    -134.421  19.122 126.361  0.00  0.00    +0.150 HD
ATOM      4  O   SER A   1    -134.322  19.743 123.250  0.00  0.00    -0.274 OA
ENDROOT
BRANCH   1   5
ATOM      5  CA  SER A   1    -136.298  19.294 124.574  0.00  0.00    +0.174 C 
BRANCH   5   6
ATOM      6  N   SER A   1    -136.586  18.055 125.295  0.00  0.00    -0.236 NA
ATOM      7  H   SER A   1    -136.890  18.106 126.288  0.00  0.00    +0.142 HD
ENDBRANCH   5   6
BRANCH   5   8
ATOM      8  CB  SER A   1    -136.899  20.488 125.344  0.00  0.00    +0.163 C 
BRANCH   8   9
ATOM      9  OG  SER A   1    -136.212  21.698 125.045  0.00  0.00    -0.380 OA
ATOM     10  H   SER A   1    -135.260  21.607 125.299  0.00  0.00    +0.211 HD
ENDBRANCH   8   9
ENDBRANCH   5   8
ENDBRANCH   1   5
BRANCH   2  11
ATOM     11  CA  LEU A   2    -132.553  19.586 125.347  0.00  0.00    +0.137 C 
BRANCH  11  12
ATOM     12  C   LEU A   2    -131.869  18.553 124.467  0.00  0.00    +0.227 C 
ATOM     13  O   LEU A   2    -130.922  18.857 123.738  0.00  0.00    -0.286 OA
ENDBRANCH  11  12
BRANCH  11  14
ATOM     14  CB  LEU A   2    -131.920  19.601 126.751  0.00  0.00    +0.028 C 
BRANCH  14  15
ATOM     15  CG  LEU A   2    -130.428  19.959 126.767  0.00  0.00    +0.002 C 
ATOM     16  CD2 LEU A   2    -129.934  19.876 128.178  0.00  0.00    +0.000 C 
ATOM     17  CD1 LEU A   2    -130.205  21.381 126.218  0.00  0.00    +0.000 C 
ENDBRANCH  14  15
ENDBRANCH  11  14
ENDBRANCH   2  11
TORSDOF 8
REMARK  Name = ../refined-set-2016/2pqc/2pqc_pocket.pdb
REMARK  243 active torsions:
REMARK  status: ('A' for Active; 'I' for Inactive)
REMARK    1  A    between atoms: _1  and  _3
REMARK    2  A    between atoms: _3  and  _4
REMARK    3  A    between atoms: _3  and  _6
REMARK    4  A    between atoms: _6  and  _7
REMARK    5  A    between atoms: _10  and  _12
REMARK    6  A    between atoms: _12  and  _13
REMARK    7  A    between atoms: _12  and  _15
REMARK    8  A    between atoms: _15  and  _16
REMARK    9  A    between atoms: _16  and  _17
REMARK   10  A    between atoms: _17  and  _18
REMARK   11  A    between atoms: _18  and  _19
REMARK   12  A    between atoms: _23  and  _25
REMARK   13  A    between atoms: _25  and  _26
REMARK   14  A    between atoms: _25  and  _28
REMARK   15  A    between atoms: _28  and  _29
REMARK   16  A    between atoms: _31  and  _33
REMARK   17  A    between atoms: _33  and  _34
REMARK   18  A    between atoms: _33  and  _36
REMARK   19  A    between atoms: _36  and  _37
REMARK   20  A    between atoms: _40  and  _42
REMARK   21  A    between atoms: _42  and  _43
REMARK   22  A    between atoms: _42  and  _45
REMARK   23  A    between atoms: _45  and  _46
REMARK   24  A    between atoms: _48  and  _50
REMARK   25  A    between atoms: _50  and  _51
REMARK   26  A    between atoms: _50  and  _53
REMARK   27  A    between atoms: _53  and  _54
REMARK   28  A    between atoms: _59  and  _61
REMARK   29  A    between atoms: _61  and  _62
REMARK   30  A    between atoms: _61  and  _64
REMARK   31  A    between atoms: _64  and  _65
REMARK   32  A    between atoms: _65  and  _66
REMARK   33  A    between atoms: _66  and  _67
REMARK   34  A    between atoms: _76  and  _78
REMARK   35  A    between atoms: _78  and  _79
REMARK   36  A    between atoms: _78  and  _81
REMARK   37  A    between atoms: _81  and  _82
REMARK   38  A    between atoms: _85  and  _87
REMARK   39  A    between atoms: _87  and  _88
REMARK   40  A    between atoms: _87  and  _90
REMARK   41  A    between atoms: _90  and  _91
REMARK   42  A    between atoms: _96  and  _98
REMARK   43  A    between atoms: _98  and  _99
REMARK   44  A    between atoms: _102  and  _104
REMARK   45  A    between atoms: _104  and  _105
REMARK   46  A    between atoms: _108  and  _110
REMARK   47  A    between atoms: _110  and  _111
REMARK   48  A    between atoms: _110  and  _113
REMARK   49  A    between atoms: _113  and  _114
REMARK   50  A    between atoms: _117  and  _119
REMARK   51  A    between atoms: _119  and  _120
REMARK   52  A    between atoms: _122  and  _124
REMARK   53  A    between atoms: _124  and  _125
REMARK   54  A    between atoms: _124  and  _127
REMARK   55  A    between atoms: _129  and  _131
REMARK   56  A    between atoms: _131  and  _132
REMARK   57  A    between atoms: _131  and  _134
REMARK   58  A    between atoms: _134  and  _135
REMARK   59  A    between atoms: _135  and  _136
REMARK   60  A    between atoms: _136  and  _137
REMARK   61  A    between atoms: _146  and  _148
REMARK   62  A    between atoms: _148  and  _149
REMARK   63  A    between atoms: _148  and  _151
REMARK   64  A    between atoms: _151  and  _152
REMARK   65  A    between atoms: _155  and  _157
REMARK   66  A    between atoms: _157  and  _158
REMARK   67  A    between atoms: _157  and  _160
REMARK   68  A    between atoms: _160  and  _161
REMARK   69  A    between atoms: _163  and  _165
REMARK   70  A    between atoms: _165  and  _166
REMARK   71  A    between atoms: _165  and  _168
REMARK   72  A    between atoms: _168  and  _169
REMARK   73  A    between atoms: _172  and  _174
REMARK   74  A    between atoms: _174  and  _175
REMARK   75  A    between atoms: _174  and  _177
REMARK   76  A    between atoms: _177  and  _178
REMARK   77  A    between atoms: _178  and  _179
REMARK   78  A    between atoms: _179  and  _180
REMARK   79  A    between atoms: _190  and  _191
REMARK   80  A    between atoms: _196  and  _198
REMARK   81  A    between atoms: _198  and  _199
REMARK   82  A    between atoms: _198  and  _201
REMARK   83  A    between atoms: _201  and  _202
REMARK   84  A    between atoms: _202  and  _203
REMARK   85  A    between atoms: _203  and  _204
REMARK   86  A    between atoms: _213  and  _215
REMARK   87  A    between atoms: _215  and  _216
REMARK   88  A    between atoms: _215  and  _218
REMARK   89  A    between atoms: _221  and  _223
REMARK   90  A    between atoms: _223  and  _224
REMARK   91  A    between atoms: _223  and  _226
REMARK   92  A    between atoms: _229  and  _231
REMARK   93  A    between atoms: _231  and  _232
REMARK   94  A    between atoms: _231  and  _234
REMARK   95  A    between atoms: _234  and  _235
REMARK   96  A    between atoms: _235  and  _236
REMARK   97  A    between atoms: _238  and  _240
REMARK   98  A    between atoms: _240  and  _241
REMARK   99  A    between atoms: _244  and  _246
REMARK  100  A    between atoms: _246  and  _247
REMARK  101  A    between atoms: _246  and  _249
REMARK  102  A    between atoms: _249  and  _250
REMARK  103  A    between atoms: _252  and  _254
REMARK  104  A    between atoms: _254  and  _255
REMARK  105  A    between atoms: _258  and  _260
REMARK  106  A    between atoms: _260  and  _261
REMARK  107  A    between atoms: _260  and  _263
REMARK  108  A    between atoms: _263  and  _264
REMARK  109  A    between atoms: _264  and  _265
REMARK  110  A    between atoms: _270  and  _272
REMARK  111  A    between atoms: _272  and  _273
REMARK  112  A    between atoms: _272  and  _275
REMARK  113  A    between atoms: _278  and  _280
REMARK  114  A    between atoms: _280  and  _281
REMARK  115  A    between atoms: _280  and  _283
REMARK  116  A    between atoms: _283  and  _284
REMARK  117  A    between atoms: _284  and  _285
REMARK  118  A    between atoms: _285  and  _286
REMARK  119  A    between atoms: _286  and  _287
REMARK  120  A    between atoms: _291  and  _293
REMARK  121  A    between atoms: _293  and  _294
REMARK  122  A    between atoms: _293  and  _296
REMARK  123  A    between atoms: _296  and  _297
REMARK  124  A    between atoms: _299  and  _301
REMARK  125  A    between atoms: _301  and  _302
REMARK  126  A    between atoms: _305  and  _307
REMARK  127  A    between atoms: _307  and  _308
REMARK  128  A    between atoms: _307  and  _310
REMARK  129  A    between atoms: _310  and  _311
REMARK  130  A    between atoms: _314  and  _316
REMARK  131  A    between atoms: _316  and  _317
REMARK  132  A    between atoms: _316  and  _319
REMARK  133  A    between atoms: _319  and  _320
REMARK  134  A    between atoms: _320  and  _321
REMARK  135  A    between atoms: _321  and  _322
REMARK  136  A    between atoms: _331  and  _333
REMARK  137  A    between atoms: _333  and  _334
REMARK  138  A    between atoms: _333  and  _336
REMARK  139  A    between atoms: _336  and  _337
REMARK  140  A    between atoms: _340  and  _342
REMARK  141  A    between atoms: _342  and  _343
REMARK  142  A    between atoms: _342  and  _345
REMARK  143  A    between atoms: _345  and  _346
REMARK  144  A    between atoms: _351  and  _353
REMARK  145  A    between atoms: _353  and  _354
REMARK  146  A    between atoms: _353  and  _356
REMARK  147  A    between atoms: _356  and  _357
REMARK  148  A    between atoms: _360  and  _362
REMARK  149  A    between atoms: _362  and  _363
REMARK  150  A    between atoms: _362  and  _365
REMARK  151  A    between atoms: _365  and  _366
REMARK  152  A    between atoms: _369  and  _371
REMARK  153  A    between atoms: _371  and  _372
REMARK  154  A    between atoms: _371  and  _374
REMARK  155  A    between atoms: _374  and  _375
REMARK  156  A    between atoms: _377  and  _379
REMARK  157  A    between atoms: _379  and  _380
REMARK  158  A    between atoms: _379  and  _382
REMARK  159  A    between atoms: _382  and  _383
REMARK  160  A    between atoms: _383  and  _384
REMARK  161  A    between atoms: _384  and  _385
REMARK  162  A    between atoms: _394  and  _396
REMARK  163  A    between atoms: _396  and  _397
REMARK  164  A    between atoms: _401  and  _402
REMARK  165  A    between atoms: _407  and  _409
REMARK  166  A    between atoms: _409  and  _410
REMARK  167  A    between atoms: _409  and  _412
REMARK  168  A    between atoms: _412  and  _413
REMARK  169  A    between atoms: _413  and  _414
REMARK  170  A    between atoms: _416  and  _418
REMARK  171  A    between atoms: _418  and  _419
REMARK  172  A    between atoms: _418  and  _421
REMARK  173  A    between atoms: _421  and  _422
REMARK  174  A    between atoms: _425  and  _427
REMARK  175  A    between atoms: _427  and  _428
REMARK  176  A    between atoms: _427  and  _430
REMARK  177  A    between atoms: _430  and  _431
REMARK  178  A    between atoms: _434  and  _436
REMARK  179  A    between atoms: _436  and  _437
REMARK  180  A    between atoms: _436  and  _439
REMARK  181  A    between atoms: _439  and  _440
REMARK  182  A    between atoms: _440  and  _441
REMARK  183  A    between atoms: _445  and  _446
REMARK  184  A    between atoms: _451  and  _453
REMARK  185  A    between atoms: _453  and  _454
REMARK  186  A    between atoms: _453  and  _456
REMARK  187  A    between atoms: _456  and  _457
REMARK  188  A    between atoms: _457  and  _458
REMARK  189  A    between atoms: _461  and  _463
REMARK  190  A    between atoms: _463  and  _464
REMARK  191  A    between atoms: _463  and  _466
REMARK  192  A    between atoms: _466  and  _467
REMARK  193  A    between atoms: _470  and  _472
REMARK  194  A    between atoms: _472  and  _473
REMARK  195  A    between atoms: _472  and  _475
REMARK  196  A    between atoms: _478  and  _480
REMARK  197  A    between atoms: _480  and  _481
REMARK  198  A    between atoms: _480  and  _483
REMARK  199  A    between atoms: _483  and  _484
REMARK  200  A    between atoms: _484  and  _485
REMARK  201  A    between atoms: _485  and  _486
REMARK  202  A    between atoms: _486  and  _487
REMARK  203  A    between atoms: _491  and  _493
REMARK  204  A    between atoms: _493  and  _494
REMARK  205  A    between atoms: _493  and  _496
REMARK  206  A    between atoms: _496  and  _497
REMARK  207  A    between atoms: _497  and  _498
REMARK  208  A    between atoms: _501  and  _503
REMARK  209  A    between atoms: _503  and  _504
REMARK  210  A    between atoms: _503  and  _506
REMARK  211  A    between atoms: _506  and  _507
REMARK  212  A    between atoms: _509  and  _511
REMARK  213  A    between atoms: _511  and  _512
REMARK  214  A    between atoms: _511  and  _514
REMARK  215  A    between atoms: _514  and  _515
REMARK  216  A    between atoms: _515  and  _516
REMARK  217  A    between atoms: _516  and  _517
REMARK  218  A    between atoms: _526  and  _528
REMARK  219  A    between atoms: _528  and  _529
REMARK  220  A    between atoms: _528  and  _531
REMARK  221  A    between atoms: _531  and  _532
REMARK  222  A    between atoms: _535  and  _537
REMARK  223  A    between atoms: _537  and  _538
REMARK  224  A    between atoms: _537  and  _540
REMARK  225  A    between atoms: _540  and  _541
REMARK  226  A    between atoms: _546  and  _548
REMARK  227  A    between atoms: _548  and  _549
REMARK  228  A    between atoms: _548  and  _551
REMARK  229  A    between atoms: _551  and  _552
REMARK  230  A    between atoms: _552  and  _553
REMARK  231  A    between atoms: _553  and  _554
REMARK  232  A    between atoms: _563  and  _565
REMARK  233  A    between atoms: _565  and  _566
REMARK  234  A    between atoms: _565  and  _568
REMARK  235  A    between atoms: _568  and  _569
REMARK  236  A    between atoms: _572  and  _574
REMARK  237  A    between atoms: _574  and  _575
REMARK  238  A    between atoms: _574  and  _577
REMARK  239  A    between atoms: _577  and  _578
REMARK  240  A    between atoms: _581  and  _583
REMARK  241  A    between atoms: _583  and  _584
REMARK  242  A    between atoms: _583  and  _586
REMARK  243  A    between atoms: _586  and  _587
REMARK                            x       y       z     vdW  Elec       q    Type
REMARK                         _______ _______ _______ _____ _____    ______ ____
ROOT
ATOM      1  CA  ARG A   1    -130.863  20.789 120.440  0.00  0.00    +0.145 C 
ENDROOT
BRANCH   1   2
ATOM      2  C   ARG A   1    -129.433  20.533 119.948  0.00  0.00    +0.241 C 
ATOM      3  O   ARG A   1    -128.766  19.587 120.372  0.00  0.00    -0.273 OA
ATOM      4  N   PRO A   2    -128.940  21.396 119.057  0.00  0.00    -0.273 N 
ATOM      5  CA  PRO A   2    -127.583  21.193 118.531  0.00  0.00    +0.140 C 
ATOM      6  CB  PRO A   2    -127.539  22.125 117.321  0.00  0.00    +0.030 C 
ATOM      7  CG  PRO A   2    -128.441  23.290 117.763  0.00  0.00    +0.024 C 
ATOM      8  CD  PRO A   2    -129.586  22.595 118.475  0.00  0.00    +0.094 C 
BRANCH   5   9
ATOM      9  C   PRO A   2    -126.428  21.426 119.480  0.00  0.00    +0.227 C 
ATOM     10  O   PRO A   2    -126.353  22.456 120.130  0.00  0.00    -0.286 OA
ENDBRANCH   5   9
ENDBRANCH   1   2
BRANCH   1  11
ATOM     11  N   ARG A   1    -131.612  19.581 120.813  0.00  0.00    -0.238 NA
ATOM     12  H   ARG A   1    -131.696  19.312 121.814  0.00  0.00    +0.142 HD
ENDBRANCH   1  11
BRANCH   1  13
ATOM     13  CB  ARG A   1    -130.898  21.778 121.613  0.00  0.00    +0.030 C 
BRANCH  13  14
ATOM     14  CG  ARG A   1    -132.359  22.212 121.893  0.00  0.00    +0.045 C 
BRANCH  14  15
ATOM     15  CD  ARG A   1    -132.526  23.038 123.140  0.00  0.00    +0.174 C 
BRANCH  15  16
ATOM     16  NE  ARG A   1    -131.948  24.376 122.987  0.00  0.00    -0.265 N 
ATOM     17  CZ  ARG A   1    -131.896  25.251 123.982  0.00  0.00    +0.342 C 
ATOM     18  NH2 ARG A   1    -132.389  24.911 125.170  0.00  0.00    -0.292 N 
ATOM     19 HH21 ARG A   1    -132.355  25.587 125.960  0.00  0.00    +0.255 HD
ATOM     20 HH22 ARG A   1    -132.808  23.969 125.309  0.00  0.00    +0.255 HD
ATOM     21  NH1 ARG A   1    -131.349  26.451 123.792  0.00  0.00    -0.292 N 
ATOM     22 HH11 ARG A   1    -131.310  27.135 124.575  0.00  0.00    +0.255 HD
ATOM     23 HH12 ARG A   1    -130.961  26.704 122.861  0.00  0.00    +0.255 HD
ATOM     24  HE  ARG A   1    -131.563  24.650 122.061  0.00  0.00    +0.259 HD
ENDBRANCH  15  16
ENDBRANCH  14  15
ENDBRANCH  13  14
ENDBRANCH   1  13
TORSDOF 7
REMARK  Name = ../refined-set-2016/2pqc/2pqc_pocket.pdb
REMARK  243 active torsions:
REMARK  status: ('A' for Active; 'I' for Inactive)
REMARK    1  A    between atoms: _1  and  _3
REMARK    2  A    between atoms: _3  and  _4
REMARK    3  A    between atoms: _3  and  _6
REMARK    4  A    between atoms: _6  and  _7
REMARK    5  A    between atoms: _10  and  _12
REMARK    6  A    between atoms: _12  and  _13
REMARK    7  A    between atoms: _12  and  _15
REMARK    8  A    between atoms: _15  and  _16
REMARK    9  A    between atoms: _16  and  _17
REMARK   10  A    between atoms: _17  and  _18
REMARK   11  A    between atoms: _18  and  _19
REMARK   12  A    between atoms: _23  and  _25
REMARK   13  A    between atoms: _25  and  _26
REMARK   14  A    between atoms: _25  and  _28
REMARK   15  A    between atoms: _28  and  _29
REMARK   16  A    between atoms: _31  and  _33
REMARK   17  A    between atoms: _33  and  _34
REMARK   18  A    between atoms: _33  and  _36
REMARK   19  A    between atoms: _36  and  _37
REMARK   20  A    between atoms: _40  and  _42
REMARK   21  A    between atoms: _42  and  _43
REMARK   22  A    between atoms: _42  and  _45
REMARK   23  A    between atoms: _45  and  _46
REMARK   24  A    between atoms: _48  and  _50
REMARK   25  A    between atoms: _50  and  _51
REMARK   26  A    between atoms: _50  and  _53
REMARK   27  A    between atoms: _53  and  _54
REMARK   28  A    between atoms: _59  and  _61
REMARK   29  A    between atoms: _61  and  _62
REMARK   30  A    between atoms: _61  and  _64
REMARK   31  A    between atoms: _64  and  _65
REMARK   32  A    between atoms: _65  and  _66
REMARK   33  A    between atoms: _66  and  _67
REMARK   34  A    between atoms: _76  and  _78
REMARK   35  A    between atoms: _78  and  _79
REMARK   36  A    between atoms: _78  and  _81
REMARK   37  A    between atoms: _81  and  _82
REMARK   38  A    between atoms: _85  and  _87
REMARK   39  A    between atoms: _87  and  _88
REMARK   40  A    between atoms: _87  and  _90
REMARK   41  A    between atoms: _90  and  _91
REMARK   42  A    between atoms: _96  and  _98
REMARK   43  A    between atoms: _98  and  _99
REMARK   44  A    between atoms: _102  and  _104
REMARK   45  A    between atoms: _104  and  _105
REMARK   46  A    between atoms: _108  and  _110
REMARK   47  A    between atoms: _110  and  _111
REMARK   48  A    between atoms: _110  and  _113
REMARK   49  A    between atoms: _113  and  _114
REMARK   50  A    between atoms: _117  and  _119
REMARK   51  A    between atoms: _119  and  _120
REMARK   52  A    between atoms: _122  and  _124
REMARK   53  A    between atoms: _124  and  _125
REMARK   54  A    between atoms: _124  and  _127
REMARK   55  A    between atoms: _129  and  _131
REMARK   56  A    between atoms: _131  and  _132
REMARK   57  A    between atoms: _131  and  _134
REMARK   58  A    between atoms: _134  and  _135
REMARK   59  A    between atoms: _135  and  _136
REMARK   60  A    between atoms: _136  and  _137
REMARK   61  A    between atoms: _146  and  _148
REMARK   62  A    between atoms: _148  and  _149
REMARK   63  A    between atoms: _148  and  _151
REMARK   64  A    between atoms: _151  and  _152
REMARK   65  A    between atoms: _155  and  _157
REMARK   66  A    between atoms: _157  and  _158
REMARK   67  A    between atoms: _157  and  _160
REMARK   68  A    between atoms: _160  and  _161
REMARK   69  A    between atoms: _163  and  _165
REMARK   70  A    between atoms: _165  and  _166
REMARK   71  A    between atoms: _165  and  _168
REMARK   72  A    between atoms: _168  and  _169
REMARK   73  A    between atoms: _172  and  _174
REMARK   74  A    between atoms: _174  and  _175
REMARK   75  A    between atoms: _174  and  _177
REMARK   76  A    between atoms: _177  and  _178
REMARK   77  A    between atoms: _178  and  _179
REMARK   78  A    between atoms: _179  and  _180
REMARK   79  A    between atoms: _190  and  _191
REMARK   80  A    between atoms: _196  and  _198
REMARK   81  A    between atoms: _198  and  _199
REMARK   82  A    between atoms: _198  and  _201
REMARK   83  A    between atoms: _201  and  _202
REMARK   84  A    between atoms: _202  and  _203
REMARK   85  A    between atoms: _203  and  _204
REMARK   86  A    between atoms: _213  and  _215
REMARK   87  A    between atoms: _215  and  _216
REMARK   88  A    between atoms: _215  and  _218
REMARK   89  A    between atoms: _221  and  _223
REMARK   90  A    between atoms: _223  and  _224
REMARK   91  A    between atoms: _223  and  _226
REMARK   92  A    between atoms: _229  and  _231
REMARK   93  A    between atoms: _231  and  _232
REMARK   94  A    between atoms: _231  and  _234
REMARK   95  A    between atoms: _234  and  _235
REMARK   96  A    between atoms: _235  and  _236
REMARK   97  A    between atoms: _238  and  _240
REMARK   98  A    between atoms: _240  and  _241
REMARK   99  A    between atoms: _244  and  _246
REMARK  100  A    between atoms: _246  and  _247
REMARK  101  A    between atoms: _246  and  _249
REMARK  102  A    between atoms: _249  and  _250
REMARK  103  A    between atoms: _252  and  _254
REMARK  104  A    between atoms: _254  and  _255
REMARK  105  A    between atoms: _258  and  _260
REMARK  106  A    between atoms: _260  and  _261
REMARK  107  A    between atoms: _260  and  _263
REMARK  108  A    between atoms: _263  and  _264
REMARK  109  A    between atoms: _264  and  _265
REMARK  110  A    between atoms: _270  and  _272
REMARK  111  A    between atoms: _272  and  _273
REMARK  112  A    between atoms: _272  and  _275
REMARK  113  A    between atoms: _278  and  _280
REMARK  114  A    between atoms: _280  and  _281
REMARK  115  A    between atoms: _280  and  _283
REMARK  116  A    between atoms: _283  and  _284
REMARK  117  A    between atoms: _284  and  _285
REMARK  118  A    between atoms: _285  and  _286
REMARK  119  A    between atoms: _286  and  _287
REMARK  120  A    between atoms: _291  and  _293
REMARK  121  A    between atoms: _293  and  _294
REMARK  122  A    between atoms: _293  and  _296
REMARK  123  A    between atoms: _296  and  _297
REMARK  124  A    between atoms: _299  and  _301
REMARK  125  A    between atoms: _301  and  _302
REMARK  126  A    between atoms: _305  and  _307
REMARK  127  A    between atoms: _307  and  _308
REMARK  128  A    between atoms: _307  and  _310
REMARK  129  A    between atoms: _310  and  _311
REMARK  130  A    between atoms: _314  and  _316
REMARK  131  A    between atoms: _316  and  _317
REMARK  132  A    between atoms: _316  and  _319
REMARK  133  A    between atoms: _319  and  _320
REMARK  134  A    between atoms: _320  and  _321
REMARK  135  A    between atoms: _321  and  _322
REMARK  136  A    between atoms: _331  and  _333
REMARK  137  A    between atoms: _333  and  _334
REMARK  138  A    between atoms: _333  and  _336
REMARK  139  A    between atoms: _336  and  _337
REMARK  140  A    between atoms: _340  and  _342
REMARK  141  A    between atoms: _342  and  _343
REMARK  142  A    between atoms: _342  and  _345
REMARK  143  A    between atoms: _345  and  _346
REMARK  144  A    between atoms: _351  and  _353
REMARK  145  A    between atoms: _353  and  _354
REMARK  146  A    between atoms: _353  and  _356
REMARK  147  A    between atoms: _356  and  _357
REMARK  148  A    between atoms: _360  and  _362
REMARK  149  A    between atoms: _362  and  _363
REMARK  150  A    between atoms: _362  and  _365
REMARK  151  A    between atoms: _365  and  _366
REMARK  152  A    between atoms: _369  and  _371
REMARK  153  A    between atoms: _371  and  _372
REMARK  154  A    between atoms: _371  and  _374
REMARK  155  A    between atoms: _374  and  _375
REMARK  156  A    between atoms: _377  and  _379
REMARK  157  A    between atoms: _379  and  _380
REMARK  158  A    between atoms: _379  and  _382
REMARK  159  A    between atoms: _382  and  _383
REMARK  160  A    between atoms: _383  and  _384
REMARK  161  A    between atoms: _384  and  _385
REMARK  162  A    between atoms: _394  and  _396
REMARK  163  A    between atoms: _396  and  _397
REMARK  164  A    between atoms: _401  and  _402
REMARK  165  A    between atoms: _407  and  _409
REMARK  166  A    between atoms: _409  and  _410
REMARK  167  A    between atoms: _409  and  _412
REMARK  168  A    between atoms: _412  and  _413
REMARK  169  A    between atoms: _413  and  _414
REMARK  170  A    between atoms: _416  and  _418
REMARK  171  A    between atoms: _418  and  _419
REMARK  172  A    between atoms: _418  and  _421
REMARK  173  A    between atoms: _421  and  _422
REMARK  174  A    between atoms: _425  and  _427
REMARK  175  A    between atoms: _427  and  _428
REMARK  176  A    between atoms: _427  and  _430
REMARK  177  A    between atoms: _430  and  _431
REMARK  178  A    between atoms: _434  and  _436
REMARK  179  A    between atoms: _436  and  _437
REMARK  180  A    between atoms: _436  and  _439
REMARK  181  A    between atoms: _439  and  _440
REMARK  182  A    between atoms: _440  and  _441
REMARK  183  A    between atoms: _445  and  _446
REMARK  184  A    between atoms: _451  and  _453
REMARK  185  A    between atoms: _453  and  _454
REMARK  186  A    between atoms: _453  and  _456
REMARK  187  A    between atoms: _456  and  _457
REMARK  188  A    between atoms: _457  and  _458
REMARK  189  A    between atoms: _461  and  _463
REMARK  190  A    between atoms: _463  and  _464
REMARK  191  A    between atoms: _463  and  _466
REMARK  192  A    between atoms: _466  and  _467
REMARK  193  A    between atoms: _470  and  _472
REMARK  194  A    between atoms: _472  and  _473
REMARK  195  A    between atoms: _472  and  _475
REMARK  196  A    between atoms: _478  and  _480
REMARK  197  A    between atoms: _480  and  _481
REMARK  198  A    between atoms: _480  and  _483
REMARK  199  A    between atoms: _483  and  _484
REMARK  200  A    between atoms: _484  and  _485
REMARK  201  A    between atoms: _485  and  _486
REMARK  202  A    between atoms: _486  and  _487
REMARK  203  A    between atoms: _491  and  _493
REMARK  204  A    between atoms: _493  and  _494
REMARK  205  A    between atoms: _493  and  _496
REMARK  206  A    between atoms: _496  and  _497
REMARK  207  A    between atoms: _497  and  _498
REMARK  208  A    between atoms: _501  and  _503
REMARK  209  A    between atoms: _503  and  _504
REMARK  210  A    between atoms: _503  and  _506
REMARK  211  A    between atoms: _506  and  _507
REMARK  212  A    between atoms: _509  and  _511
REMARK  213  A    between atoms: _511  and  _512
REMARK  214  A    between atoms: _511  and  _514
REMARK  215  A    between atoms: _514  and  _515
REMARK  216  A    between atoms: _515  and  _516
REMARK  217  A    between atoms: _516  and  _517
REMARK  218  A    between atoms: _526  and  _528
REMARK  219  A    between atoms: _528  and  _529
REMARK  220  A    between atoms: _528  and  _531
REMARK  221  A    between atoms: _531  and  _532
REMARK  222  A    between atoms: _535  and  _537
REMARK  223  A    between atoms: _537  and  _538
REMARK  224  A    between atoms: _537  and  _540
REMARK  225  A    between atoms: _540  and  _541
REMARK  226  A    between atoms: _546  and  _548
REMARK  227  A    between atoms: _548  and  _549
REMARK  228  A    between atoms: _548  and  _551
REMARK  229  A    between atoms: _551  and  _552
REMARK  230  A    between atoms: _552  and  _553
REMARK  231  A    between atoms: _553  and  _554
REMARK  232  A    between atoms: _563  and  _565
REMARK  233  A    between atoms: _565  and  _566
REMARK  234  A    between atoms: _565  and  _568
REMARK  235  A    between atoms: _568  and  _569
REMARK  236  A    between atoms: _572  and  _574
REMARK  237  A    between atoms: _574  and  _575
REMARK  238  A    between atoms: _574  and  _577
REMARK  239  A    between atoms: _577  and  _578
REMARK  240  A    between atoms: _581  and  _583
REMARK  241  A    between atoms: _583  and  _584
REMARK  242  A    between atoms: _583  and  _586
REMARK  243  A    between atoms: _586  and  _587
REMARK                            x       y       z     vdW  Elec       q    Type
REMARK                         _______ _______ _______ _____ _____    ______ ____
ROOT
ATOM      1  CA  ARG A   1    -121.462  24.370 117.880  0.00  0.00    +0.145 C 
ENDROOT
BRANCH   1   2
ATOM      2  C   ARG A   1    -120.442  24.486 119.024  0.00  0.00    +0.238 C 
ATOM      3  N   VAL A   2    -120.592  23.637 120.042  0.00  0.00    -0.298 N 
ATOM      4  H   VAL A   2    -121.406  22.989 120.051  0.00  0.00    +0.150 HD
ATOM      5  O   ARG A   1    -119.521  25.317 118.968  0.00  0.00    -0.274 OA
BRANCH   3   6
ATOM      6  CA  VAL A   2    -119.633  23.600 121.147  0.00  0.00    +0.137 C 
BRANCH   6   7
ATOM      7  CB  VAL A   2    -120.373  23.517 122.512  0.00  0.00    +0.026 C 
ATOM      8  CG2 VAL A   2    -119.461  22.941 123.575  0.00  0.00    +0.002 C 
ATOM      9  CG1 VAL A   2    -120.844  24.906 122.925  0.00  0.00    +0.002 C 
ENDBRANCH   6   7
BRANCH   6  10
ATOM     10  C   VAL A   2    -118.680  22.405 121.000  0.00  0.00    +0.227 C 
ATOM     11  O   VAL A   2    -117.491  22.510 121.296  0.00  0.00    -0.286 OA
ENDBRANCH   6  10
ENDBRANCH   3   6
ENDBRANCH   1   2
BRANCH   1  12
ATOM     12  N   ARG A   1    -122.038  23.028 117.778  0.00  0.00    -0.238 NA
ATOM     13  H   ARG A   1    -123.066  22.904 117.877  0.00  0.00    +0.142 HD
ENDBRANCH   1  12
BRANCH   1  14
ATOM     14  CB  ARG A   1    -122.589  25.398 118.017  0.00  0.00    +0.030 C 
BRANCH  14  15
ATOM     15  CG  ARG A   1    -123.553  25.056 119.126  0.00  0.00    +0.045 C 
BRANCH  15  16
ATOM     16  CD  ARG A   1    -124.662  26.064 119.194  0.00  0.00    +0.174 C 
BRANCH  16  17
ATOM     17  NE  ARG A   1    -125.381  26.161 117.928  0.00  0.00    -0.265 N 
ATOM     18  CZ  ARG A   1    -126.177  27.178 117.634  0.00  0.00    +0.342 C 
ATOM     19  NH2 ARG A   1    -126.342  28.158 118.517  0.00  0.00    -0.292 N 
ATOM     20 HH21 ARG A   1    -125.848  28.123 119.431  0.00  0.00    +0.255 HD
ATOM     21 HH22 ARG A   1    -126.965  28.960 118.293  0.00  0.00    +0.255 HD
ATOM     22  NH1 ARG A   1    -126.783  27.236 116.465  0.00  0.00    -0.292 N 
ATOM     23 HH11 ARG A   1    -127.406  28.038 116.242  0.00  0.00    +0.255 HD
ATOM     24 HH12 ARG A   1    -126.638  26.480 115.766  0.00  0.00    +0.255 HD
ATOM     25  HE  ARG A   1    -125.264  25.401 117.228  0.00  0.00    +0.259 HD
ENDBRANCH  16  17
ENDBRANCH  15  16
ENDBRANCH  14  15
ENDBRANCH   1  14
TORSDOF 9
REMARK  Name = ../refined-set-2016/2pqc/2pqc_pocket.pdb
REMARK  243 active torsions:
REMARK  status: ('A' for Active; 'I' for Inactive)
REMARK    1  A    between atoms: _1  and  _3
REMARK    2  A    between atoms: _3  and  _4
REMARK    3  A    between atoms: _3  and  _6
REMARK    4  A    between atoms: _6  and  _7
REMARK    5  A    between atoms: _10  and  _12
REMARK    6  A    between atoms: _12  and  _13
REMARK    7  A    between atoms: _12  and  _15
REMARK    8  A    between atoms: _15  and  _16
REMARK    9  A    between atoms: _16  and  _17
REMARK   10  A    between atoms: _17  and  _18
REMARK   11  A    between atoms: _18  and  _19
REMARK   12  A    between atoms: _23  and  _25
REMARK   13  A    between atoms: _25  and  _26
REMARK   14  A    between atoms: _25  and  _28
REMARK   15  A    between atoms: _28  and  _29
REMARK   16  A    between atoms: _31  and  _33
REMARK   17  A    between atoms: _33  and  _34
REMARK   18  A    between atoms: _33  and  _36
REMARK   19  A    between atoms: _36  and  _37
REMARK   20  A    between atoms: _40  and  _42
REMARK   21  A    between atoms: _42  and  _43
REMARK   22  A    between atoms: _42  and  _45
REMARK   23  A    between atoms: _45  and  _46
REMARK   24  A    between atoms: _48  and  _50
REMARK   25  A    between atoms: _50  and  _51
REMARK   26  A    between atoms: _50  and  _53
REMARK   27  A    between atoms: _53  and  _54
REMARK   28  A    between atoms: _59  and  _61
REMARK   29  A    between atoms: _61  and  _62
REMARK   30  A    between atoms: _61  and  _64
REMARK   31  A    between atoms: _64  and  _65
REMARK   32  A    between atoms: _65  and  _66
REMARK   33  A    between atoms: _66  and  _67
REMARK   34  A    between atoms: _76  and  _78
REMARK   35  A    between atoms: _78  and  _79
REMARK   36  A    between atoms: _78  and  _81
REMARK   37  A    between atoms: _81  and  _82
REMARK   38  A    between atoms: _85  and  _87
REMARK   39  A    between atoms: _87  and  _88
REMARK   40  A    between atoms: _87  and  _90
REMARK   41  A    between atoms: _90  and  _91
REMARK   42  A    between atoms: _96  and  _98
REMARK   43  A    between atoms: _98  and  _99
REMARK   44  A    between atoms: _102  and  _104
REMARK   45  A    between atoms: _104  and  _105
REMARK   46  A    between atoms: _108  and  _110
REMARK   47  A    between atoms: _110  and  _111
REMARK   48  A    between atoms: _110  and  _113
REMARK   49  A    between atoms: _113  and  _114
REMARK   50  A    between atoms: _117  and  _119
REMARK   51  A    between atoms: _119  and  _120
REMARK   52  A    between atoms: _122  and  _124
REMARK   53  A    between atoms: _124  and  _125
REMARK   54  A    between atoms: _124  and  _127
REMARK   55  A    between atoms: _129  and  _131
REMARK   56  A    between atoms: _131  and  _132
REMARK   57  A    between atoms: _131  and  _134
REMARK   58  A    between atoms: _134  and  _135
REMARK   59  A    between atoms: _135  and  _136
REMARK   60  A    between atoms: _136  and  _137
REMARK   61  A    between atoms: _146  and  _148
REMARK   62  A    between atoms: _148  and  _149
REMARK   63  A    between atoms: _148  and  _151
REMARK   64  A    between atoms: _151  and  _152
REMARK   65  A    between atoms: _155  and  _157
REMARK   66  A    between atoms: _157  and  _158
REMARK   67  A    between atoms: _157  and  _160
REMARK   68  A    between atoms: _160  and  _161
REMARK   69  A    between atoms: _163  and  _165
REMARK   70  A    between atoms: _165  and  _166
REMARK   71  A    between atoms: _165  and  _168
REMARK   72  A    between atoms: _168  and  _169
REMARK   73  A    between atoms: _172  and  _174
REMARK   74  A    between atoms: _174  and  _175
REMARK   75  A    between atoms: _174  and  _177
REMARK   76  A    between atoms: _177  and  _178
REMARK   77  A    between atoms: _178  and  _179
REMARK   78  A    between atoms: _179  and  _180
REMARK   79  A    between atoms: _190  and  _191
REMARK   80  A    between atoms: _196  and  _198
REMARK   81  A    between atoms: _198  and  _199
REMARK   82  A    between atoms: _198  and  _201
REMARK   83  A    between atoms: _201  and  _202
REMARK   84  A    between atoms: _202  and  _203
REMARK   85  A    between atoms: _203  and  _204
REMARK   86  A    between atoms: _213  and  _215
REMARK   87  A    between atoms: _215  and  _216
REMARK   88  A    between atoms: _215  and  _218
REMARK   89  A    between atoms: _221  and  _223
REMARK   90  A    between atoms: _223  and  _224
REMARK   91  A    between atoms: _223  and  _226
REMARK   92  A    between atoms: _229  and  _231
REMARK   93  A    between atoms: _231  and  _232
REMARK   94  A    between atoms: _231  and  _234
REMARK   95  A    between atoms: _234  and  _235
REMARK   96  A    between atoms: _235  and  _236
REMARK   97  A    between atoms: _238  and  _240
REMARK   98  A    between atoms: _240  and  _241
REMARK   99  A    between atoms: _244  and  _246
REMARK  100  A    between atoms: _246  and  _247
REMARK  101  A    between atoms: _246  and  _249
REMARK  102  A    between atoms: _249  and  _250
REMARK  103  A    between atoms: _252  and  _254
REMARK  104  A    between atoms: _254  and  _255
REMARK  105  A    between atoms: _258  and  _260
REMARK  106  A    between atoms: _260  and  _261
REMARK  107  A    between atoms: _260  and  _263
REMARK  108  A    between atoms: _263  and  _264
REMARK  109  A    between atoms: _264  and  _265
REMARK  110  A    between atoms: _270  and  _272
REMARK  111  A    between atoms: _272  and  _273
REMARK  112  A    between atoms: _272  and  _275
REMARK  113  A    between atoms: _278  and  _280
REMARK  114  A    between atoms: _280  and  _281
REMARK  115  A    between atoms: _280  and  _283
REMARK  116  A    between atoms: _283  and  _284
REMARK  117  A    between atoms: _284  and  _285
REMARK  118  A    between atoms: _285  and  _286
REMARK  119  A    between atoms: _286  and  _287
REMARK  120  A    between atoms: _291  and  _293
REMARK  121  A    between atoms: _293  and  _294
REMARK  122  A    between atoms: _293  and  _296
REMARK  123  A    between atoms: _296  and  _297
REMARK  124  A    between atoms: _299  and  _301
REMARK  125  A    between atoms: _301  and  _302
REMARK  126  A    between atoms: _305  and  _307
REMARK  127  A    between atoms: _307  and  _308
REMARK  128  A    between atoms: _307  and  _310
REMARK  129  A    between atoms: _310  and  _311
REMARK  130  A    between atoms: _314  and  _316
REMARK  131  A    between atoms: _316  and  _317
REMARK  132  A    between atoms: _316  and  _319
REMARK  133  A    between atoms: _319  and  _320
REMARK  134  A    between atoms: _320  and  _321
REMARK  135  A    between atoms: _321  and  _322
REMARK  136  A    between atoms: _331  and  _333
REMARK  137  A    between atoms: _333  and  _334
REMARK  138  A    between atoms: _333  and  _336
REMARK  139  A    between atoms: _336  and  _337
REMARK  140  A    between atoms: _340  and  _342
REMARK  141  A    between atoms: _342  and  _343
REMARK  142  A    between atoms: _342  and  _345
REMARK  143  A    between atoms: _345  and  _346
REMARK  144  A    between atoms: _351  and  _353
REMARK  145  A    between atoms: _353  and  _354
REMARK  146  A    between atoms: _353  and  _356
REMARK  147  A    between atoms: _356  and  _357
REMARK  148  A    between atoms: _360  and  _362
REMARK  149  A    between atoms: _362  and  _363
REMARK  150  A    between atoms: _362  and  _365
REMARK  151  A    between atoms: _365  and  _366
REMARK  152  A    between atoms: _369  and  _371
REMARK  153  A    between atoms: _371  and  _372
REMARK  154  A    between atoms: _371  and  _374
REMARK  155  A    between atoms: _374  and  _375
REMARK  156  A    between atoms: _377  and  _379
REMARK  157  A    between atoms: _379  and  _380
REMARK  158  A    between atoms: _379  and  _382
REMARK  159  A    between atoms: _382  and  _383
REMARK  160  A    between atoms: _383  and  _384
REMARK  161  A    between atoms: _384  and  _385
REMARK  162  A    between atoms: _394  and  _396
REMARK  163  A    between atoms: _396  and  _397
REMARK  164  A    between atoms: _401  and  _402
REMARK  165  A    between atoms: _407  and  _409
REMARK  166  A    between atoms: _409  and  _410
REMARK  167  A    between atoms: _409  and  _412
REMARK  168  A    between atoms: _412  and  _413
REMARK  169  A    between atoms: _413  and  _414
REMARK  170  A    between atoms: _416  and  _418
REMARK  171  A    between atoms: _418  and  _419
REMARK  172  A    between atoms: _418  and  _421
REMARK  173  A    between atoms: _421  and  _422
REMARK  174  A    between atoms: _425  and  _427
REMARK  175  A    between atoms: _427  and  _428
REMARK  176  A    between atoms: _427  and  _430
REMARK  177  A    between atoms: _430  and  _431
REMARK  178  A    between atoms: _434  and  _436
REMARK  179  A    between atoms: _436  and  _437
REMARK  180  A    between atoms: _436  and  _439
REMARK  181  A    between atoms: _439  and  _440
REMARK  182  A    between atoms: _440  and  _441
REMARK  183  A    between atoms: _445  and  _446
REMARK  184  A    between atoms: _451  and  _453
REMARK  185  A    between atoms: _453  and  _454
REMARK  186  A    between atoms: _453  and  _456
REMARK  187  A    between atoms: _456  and  _457
REMARK  188  A    between atoms: _457  and  _458
REMARK  189  A    between atoms: _461  and  _463
REMARK  190  A    between atoms: _463  and  _464
REMARK  191  A    between atoms: _463  and  _466
REMARK  192  A    between atoms: _466  and  _467
REMARK  193  A    between atoms: _470  and  _472
REMARK  194  A    between atoms: _472  and  _473
REMARK  195  A    between atoms: _472  and  _475
REMARK  196  A    between atoms: _478  and  _480
REMARK  197  A    between atoms: _480  and  _481
REMARK  198  A    between atoms: _480  and  _483
REMARK  199  A    between atoms: _483  and  _484
REMARK  200  A    between atoms: _484  and  _485
REMARK  201  A    between atoms: _485  and  _486
REMARK  202  A    between atoms: _486  and  _487
REMARK  203  A    between atoms: _491  and  _493
REMARK  204  A    between atoms: _493  and  _494
REMARK  205  A    between atoms: _493  and  _496
REMARK  206  A    between atoms: _496  and  _497
REMARK  207  A    between atoms: _497  and  _498
REMARK  208  A    between atoms: _501  and  _503
REMARK  209  A    between atoms: _503  and  _504
REMARK  210  A    between atoms: _503  and  _506
REMARK  211  A    between atoms: _506  and  _507
REMARK  212  A    between atoms: _509  and  _511
REMARK  213  A    between atoms: _511  and  _512
REMARK  214  A    between atoms: _511  and  _514
REMARK  215  A    between atoms: _514  and  _515
REMARK  216  A    between atoms: _515  and  _516
REMARK  217  A    between atoms: _516  and  _517
REMARK  218  A    between atoms: _526  and  _528
REMARK  219  A    between atoms: _528  and  _529
REMARK  220  A    between atoms: _528  and  _531
REMARK  221  A    between atoms: _531  and  _532
REMARK  222  A    between atoms: _535  and  _537
REMARK  223  A    between atoms: _537  and  _538
REMARK  224  A    between atoms: _537  and  _540
REMARK  225  A    between atoms: _540  and  _541
REMARK  226  A    between atoms: _546  and  _548
REMARK  227  A    between atoms: _548  and  _549
REMARK  228  A    between atoms: _548  and  _551
REMARK  229  A    between atoms: _551  and  _552
REMARK  230  A    between atoms: _552  and  _553
REMARK  231  A    between atoms: _553  and  _554
REMARK  232  A    between atoms: _563  and  _565
REMARK  233  A    between atoms: _565  and  _566
REMARK  234  A    between atoms: _565  and  _568
REMARK  235  A    between atoms: _568  and  _569
REMARK  236  A    between atoms: _572  and  _574
REMARK  237  A    between atoms: _574  and  _575
REMARK  238  A    between atoms: _574  and  _577
REMARK  239  A    between atoms: _577  and  _578
REMARK  240  A    between atoms: _581  and  _583
REMARK  241  A    between atoms: _583  and  _584
REMARK  242  A    between atoms: _583  and  _586
REMARK  243  A    between atoms: _586  and  _587
REMARK                            x       y       z     vdW  Elec       q    Type
REMARK                         _______ _______ _______ _____ _____    ______ ____
ROOT
ATOM      1  CA  VAL A   1    -117.676  31.973 116.750  0.00  0.00    +0.133 C 
ENDROOT
BRANCH   1   2
ATOM      2  CB  VAL A   1    -118.339  32.523 118.017  0.00  0.00    +0.023 C 
ATOM      3  CG2 VAL A   1    -117.334  32.457 119.208  0.00  0.00    +0.002 C 
ATOM      4  CG1 VAL A   1    -119.579  31.708 118.331  0.00  0.00    +0.002 C 
ENDBRANCH   1   2
BRANCH   1   5
ATOM      5  N   VAL A   1    -116.334  32.541 116.597  0.00  0.00    -0.239 NA
ATOM      6  H   VAL A   1    -116.045  33.336 117.201  0.00  0.00    +0.142 HD
ENDBRANCH   1   5
BRANCH   1   7
ATOM      7  C   VAL A   1    -118.493  32.312 115.502  0.00  0.00    +0.224 C 
ATOM      8  O   VAL A   1    -118.655  33.472 115.147  0.00  0.00    -0.287 OA
ENDBRANCH   1   7
TORSDOF 3
REMARK  Name = ../refined-set-2016/2pqc/2pqc_pocket.pdb
REMARK  243 active torsions:
REMARK  status: ('A' for Active; 'I' for Inactive)
REMARK    1  A    between atoms: _1  and  _3
REMARK    2  A    between atoms: _3  and  _4
REMARK    3  A    between atoms: _3  and  _6
REMARK    4  A    between atoms: _6  and  _7
REMARK    5  A    between atoms: _10  and  _12
REMARK    6  A    between atoms: _12  and  _13
REMARK    7  A    between atoms: _12  and  _15
REMARK    8  A    between atoms: _15  and  _16
REMARK    9  A    between atoms: _16  and  _17
REMARK   10  A    between atoms: _17  and  _18
REMARK   11  A    between atoms: _18  and  _19
REMARK   12  A    between atoms: _23  and  _25
REMARK   13  A    between atoms: _25  and  _26
REMARK   14  A    between atoms: _25  and  _28
REMARK   15  A    between atoms: _28  and  _29
REMARK   16  A    between atoms: _31  and  _33
REMARK   17  A    between atoms: _33  and  _34
REMARK   18  A    between atoms: _33  and  _36
REMARK   19  A    between atoms: _36  and  _37
REMARK   20  A    between atoms: _40  and  _42
REMARK   21  A    between atoms: _42  and  _43
REMARK   22  A    between atoms: _42  and  _45
REMARK   23  A    between atoms: _45  and  _46
REMARK   24  A    between atoms: _48  and  _50
REMARK   25  A    between atoms: _50  and  _51
REMARK   26  A    between atoms: _50  and  _53
REMARK   27  A    between atoms: _53  and  _54
REMARK   28  A    between atoms: _59  and  _61
REMARK   29  A    between atoms: _61  and  _62
REMARK   30  A    between atoms: _61  and  _64
REMARK   31  A    between atoms: _64  and  _65
REMARK   32  A    between atoms: _65  and  _66
REMARK   33  A    between atoms: _66  and  _67
REMARK   34  A    between atoms: _76  and  _78
REMARK   35  A    between atoms: _78  and  _79
REMARK   36  A    between atoms: _78  and  _81
REMARK   37  A    between atoms: _81  and  _82
REMARK   38  A    between atoms: _85  and  _87
REMARK   39  A    between atoms: _87  and  _88
REMARK   40  A    between atoms: _87  and  _90
REMARK   41  A    between atoms: _90  and  _91
REMARK   42  A    between atoms: _96  and  _98
REMARK   43  A    between atoms: _98  and  _99
REMARK   44  A    between atoms: _102  and  _104
REMARK   45  A    between atoms: _104  and  _105
REMARK   46  A    between atoms: _108  and  _110
REMARK   47  A    between atoms: _110  and  _111
REMARK   48  A    between atoms: _110  and  _113
REMARK   49  A    between atoms: _113  and  _114
REMARK   50  A    between atoms: _117  and  _119
REMARK   51  A    between atoms: _119  and  _120
REMARK   52  A    between atoms: _122  and  _124
REMARK   53  A    between atoms: _124  and  _125
REMARK   54  A    between atoms: _124  and  _127
REMARK   55  A    between atoms: _129  and  _131
REMARK   56  A    between atoms: _131  and  _132
REMARK   57  A    between atoms: _131  and  _134
REMARK   58  A    between atoms: _134  and  _135
REMARK   59  A    between atoms: _135  and  _136
REMARK   60  A    between atoms: _136  and  _137
REMARK   61  A    between atoms: _146  and  _148
REMARK   62  A    between atoms: _148  and  _149
REMARK   63  A    between atoms: _148  and  _151
REMARK   64  A    between atoms: _151  and  _152
REMARK   65  A    between atoms: _155  and  _157
REMARK   66  A    between atoms: _157  and  _158
REMARK   67  A    between atoms: _157  and  _160
REMARK   68  A    between atoms: _160  and  _161
REMARK   69  A    between atoms: _163  and  _165
REMARK   70  A    between atoms: _165  and  _166
REMARK   71  A    between atoms: _165  and  _168
REMARK   72  A    between atoms: _168  and  _169
REMARK   73  A    between atoms: _172  and  _174
REMARK   74  A    between atoms: _174  and  _175
REMARK   75  A    between atoms: _174  and  _177
REMARK   76  A    between atoms: _177  and  _178
REMARK   77  A    between atoms: _178  and  _179
REMARK   78  A    between atoms: _179  and  _180
REMARK   79  A    between atoms: _190  and  _191
REMARK   80  A    between atoms: _196  and  _198
REMARK   81  A    between atoms: _198  and  _199
REMARK   82  A    between atoms: _198  and  _201
REMARK   83  A    between atoms: _201  and  _202
REMARK   84  A    between atoms: _202  and  _203
REMARK   85  A    between atoms: _203  and  _204
REMARK   86  A    between atoms: _213  and  _215
REMARK   87  A    between atoms: _215  and  _216
REMARK   88  A    between atoms: _215  and  _218
REMARK   89  A    between atoms: _221  and  _223
REMARK   90  A    between atoms: _223  and  _224
REMARK   91  A    between atoms: _223  and  _226
REMARK   92  A    between atoms: _229  and  _231
REMARK   93  A    between atoms: _231  and  _232
REMARK   94  A    between atoms: _231  and  _234
REMARK   95  A    between atoms: _234  and  _235
REMARK   96  A    between atoms: _235  and  _236
REMARK   97  A    between atoms: _238  and  _240
REMARK   98  A    between atoms: _240  and  _241
REMARK   99  A    between atoms: _244  and  _246
REMARK  100  A    between atoms: _246  and  _247
REMARK  101  A    between atoms: _246  and  _249
REMARK  102  A    between atoms: _249  and  _250
REMARK  103  A    between atoms: _252  and  _254
REMARK  104  A    between atoms: _254  and  _255
REMARK  105  A    between atoms: _258  and  _260
REMARK  106  A    between atoms: _260  and  _261
REMARK  107  A    between atoms: _260  and  _263
REMARK  108  A    between atoms: _263  and  _264
REMARK  109  A    between atoms: _264  and  _265
REMARK  110  A    between atoms: _270  and  _272
REMARK  111  A    between atoms: _272  and  _273
REMARK  112  A    between atoms: _272  and  _275
REMARK  113  A    between atoms: _278  and  _280
REMARK  114  A    between atoms: _280  and  _281
REMARK  115  A    between atoms: _280  and  _283
REMARK  116  A    between atoms: _283  and  _284
REMARK  117  A    between atoms: _284  and  _285
REMARK  118  A    between atoms: _285  and  _286
REMARK  119  A    between atoms: _286  and  _287
REMARK  120  A    between atoms: _291  and  _293
REMARK  121  A    between atoms: _293  and  _294
REMARK  122  A    between atoms: _293  and  _296
REMARK  123  A    between atoms: _296  and  _297
REMARK  124  A    between atoms: _299  and  _301
REMARK  125  A    between atoms: _301  and  _302
REMARK  126  A    between atoms: _305  and  _307
REMARK  127  A    between atoms: _307  and  _308
REMARK  128  A    between atoms: _307  and  _310
REMARK  129  A    between atoms: _310  and  _311
REMARK  130  A    between atoms: _314  and  _316
REMARK  131  A    between atoms: _316  and  _317
REMARK  132  A    between atoms: _316  and  _319
REMARK  133  A    between atoms: _319  and  _320
REMARK  134  A    between atoms: _320  and  _321
REMARK  135  A    between atoms: _321  and  _322
REMARK  136  A    between atoms: _331  and  _333
REMARK  137  A    between atoms: _333  and  _334
REMARK  138  A    between atoms: _333  and  _336
REMARK  139  A    between atoms: _336  and  _337
REMARK  140  A    between atoms: _340  and  _342
REMARK  141  A    between atoms: _342  and  _343
REMARK  142  A    between atoms: _342  and  _345
REMARK  143  A    between atoms: _345  and  _346
REMARK  144  A    between atoms: _351  and  _353
REMARK  145  A    between atoms: _353  and  _354
REMARK  146  A    between atoms: _353  and  _356
REMARK  147  A    between atoms: _356  and  _357
REMARK  148  A    between atoms: _360  and  _362
REMARK  149  A    between atoms: _362  and  _363
REMARK  150  A    between atoms: _362  and  _365
REMARK  151  A    between atoms: _365  and  _366
REMARK  152  A    between atoms: _369  and  _371
REMARK  153  A    between atoms: _371  and  _372
REMARK  154  A    between atoms: _371  and  _374
REMARK  155  A    between atoms: _374  and  _375
REMARK  156  A    between atoms: _377  and  _379
REMARK  157  A    between atoms: _379  and  _380
REMARK  158  A    between atoms: _379  and  _382
REMARK  159  A    between atoms: _382  and  _383
REMARK  160  A    between atoms: _383  and  _384
REMARK  161  A    between atoms: _384  and  _385
REMARK  162  A    between atoms: _394  and  _396
REMARK  163  A    between atoms: _396  and  _397
REMARK  164  A    between atoms: _401  and  _402
REMARK  165  A    between atoms: _407  and  _409
REMARK  166  A    between atoms: _409  and  _410
REMARK  167  A    between atoms: _409  and  _412
REMARK  168  A    between atoms: _412  and  _413
REMARK  169  A    between atoms: _413  and  _414
REMARK  170  A    between atoms: _416  and  _418
REMARK  171  A    between atoms: _418  and  _419
REMARK  172  A    between atoms: _418  and  _421
REMARK  173  A    between atoms: _421  and  _422
REMARK  174  A    between atoms: _425  and  _427
REMARK  175  A    between atoms: _427  and  _428
REMARK  176  A    between atoms: _427  and  _430
REMARK  177  A    between atoms: _430  and  _431
REMARK  178  A    between atoms: _434  and  _436
REMARK  179  A    between atoms: _436  and  _437
REMARK  180  A    between atoms: _436  and  _439
REMARK  181  A    between atoms: _439  and  _440
REMARK  182  A    between atoms: _440  and  _441
REMARK  183  A    between atoms: _445  and  _446
REMARK  184  A    between atoms: _451  and  _453
REMARK  185  A    between atoms: _453  and  _454
REMARK  186  A    between atoms: _453  and  _456
REMARK  187  A    between atoms: _456  and  _457
REMARK  188  A    between atoms: _457  and  _458
REMARK  189  A    between atoms: _461  and  _463
REMARK  190  A    between atoms: _463  and  _464
REMARK  191  A    between atoms: _463  and  _466
REMARK  192  A    between atoms: _466  and  _467
REMARK  193  A    between atoms: _470  and  _472
REMARK  194  A    between atoms: _472  and  _473
REMARK  195  A    between atoms: _472  and  _475
REMARK  196  A    between atoms: _478  and  _480
REMARK  197  A    between atoms: _480  and  _481
REMARK  198  A    between atoms: _480  and  _483
REMARK  199  A    between atoms: _483  and  _484
REMARK  200  A    between atoms: _484  and  _485
REMARK  201  A    between atoms: _485  and  _486
REMARK  202  A    between atoms: _486  and  _487
REMARK  203  A    between atoms: _491  and  _493
REMARK  204  A    between atoms: _493  and  _494
REMARK  205  A    between atoms: _493  and  _496
REMARK  206  A    between atoms: _496  and  _497
REMARK  207  A    between atoms: _497  and  _498
REMARK  208  A    between atoms: _501  and  _503
REMARK  209  A    between atoms: _503  and  _504
REMARK  210  A    between atoms: _503  and  _506
REMARK  211  A    between atoms: _506  and  _507
REMARK  212  A    between atoms: _509  and  _511
REMARK  213  A    between atoms: _511  and  _512
REMARK  214  A    between atoms: _511  and  _514
REMARK  215  A    between atoms: _514  and  _515
REMARK  216  A    between atoms: _515  and  _516
REMARK  217  A    between atoms: _516  and  _517
REMARK  218  A    between atoms: _526  and  _528
REMARK  219  A    between atoms: _528  and  _529
REMARK  220  A    between atoms: _528  and  _531
REMARK  221  A    between atoms: _531  and  _532
REMARK  222  A    between atoms: _535  and  _537
REMARK  223  A    between atoms: _537  and  _538
REMARK  224  A    between atoms: _537  and  _540
REMARK  225  A    between atoms: _540  and  _541
REMARK  226  A    between atoms: _546  and  _548
REMARK  227  A    between atoms: _548  and  _549
REMARK  228  A    between atoms: _548  and  _551
REMARK  229  A    between atoms: _551  and  _552
REMARK  230  A    between atoms: _552  and  _553
REMARK  231  A    between atoms: _553  and  _554
REMARK  232  A    between atoms: _563  and  _565
REMARK  233  A    between atoms: _565  and  _566
REMARK  234  A    between atoms: _565  and  _568
REMARK  235  A    between atoms: _568  and  _569
REMARK  236  A    between atoms: _572  and  _574
REMARK  237  A    between atoms: _574  and  _575
REMARK  238  A    between atoms: _574  and  _577
REMARK  239  A    between atoms: _577  and  _578
REMARK  240  A    between atoms: _581  and  _583
REMARK  241  A    between atoms: _583  and  _584
REMARK  242  A    between atoms: _583  and  _586
REMARK  243  A    between atoms: _586  and  _587
REMARK                            x       y       z     vdW  Elec       q    Type
REMARK                         _______ _______ _______ _____ _____    ______ ____
ROOT
ATOM      1  CA  GLN A   5    -122.904  29.912 125.043  0.00  0.00    +0.149 C 
ENDROOT
BRANCH   1   4
ATOM      2  C   ALA A   4    -122.395  32.248 124.670  0.00  0.00    +0.241 C 
ATOM      3  O   ALA A   4    -121.363  32.123 125.310  0.00  0.00    -0.273 OA
ATOM      4  N   GLN A   5    -123.230  31.228 124.474  0.00  0.00    -0.297 N 
ATOM      5  H   GLN A   5    -124.103  31.361 123.924  0.00  0.00    +0.150 HD
BRANCH   2   6
ATOM      6  CA  ALA A   4    -122.737  33.610 124.050  0.00  0.00    +0.149 C 
ATOM      7  CB  ALA A   4    -123.500  34.463 125.069  0.00  0.00    +0.031 C 
BRANCH   6   9
ATOM      8  C   SER A   3    -122.964  32.880 121.758  0.00  0.00    +0.243 C 
ATOM      9  N   ALA A   4    -123.538  33.381 122.847  0.00  0.00    -0.297 N 
ATOM     10  H   ALA A   4    -124.553  33.609 122.844  0.00  0.00    +0.150 HD
ATOM     11  O   SER A   3    -121.756  32.632 121.680  0.00  0.00    -0.273 OA
BRANCH   8  12
ATOM     12  CA  SER A   3    -123.873  32.594 120.579  0.00  0.00    +0.178 C 
BRANCH  12  15
ATOM     13  C   ALA A   2    -124.483  34.350 118.966  0.00  0.00    +0.241 C 
ATOM     14  O   ALA A   2    -125.530  34.658 119.545  0.00  0.00    -0.273 OA
ATOM     15  N   SER A   3    -123.634  33.416 119.398  0.00  0.00    -0.295 N 
ATOM     16  H   SER A   3    -122.754  33.266 118.864  0.00  0.00    +0.150 HD
BRANCH  13  17
ATOM     17  CA  ALA A   2    -124.062  35.065 117.686  0.00  0.00    +0.149 C 
ATOM     18  CB  ALA A   2    -124.958  36.283 117.426  0.00  0.00    +0.031 C 
BRANCH  17  21
ATOM     19  C   MET A   1    -123.094  33.323 116.280  0.00  0.00    +0.238 C 
ATOM     20  O   MET A   1    -122.119  33.195 117.034  0.00  0.00    -0.274 OA
ATOM     21  N   ALA A   2    -124.078  34.189 116.517  0.00  0.00    -0.297 N 
ATOM     22  H   ALA A   2    -124.877  34.243 115.854  0.00  0.00    +0.150 HD
BRANCH  19  23
ATOM     23  CA  MET A   1    -123.186  32.489 114.996  0.00  0.00    +0.146 C 
BRANCH  23  24
ATOM     24  N   MET A   1    -121.861  31.905 114.800  0.00  0.00    -0.238 NA
ATOM     25  H   MET A   1    -121.425  31.366 115.575  0.00  0.00    +0.142 HD
ENDBRANCH  23  24
BRANCH  23  26
ATOM     26  CB  MET A   1    -124.265  31.387 115.087  0.00  0.00    +0.038 C 
BRANCH  26  27
ATOM     27  CG  MET A   1    -124.328  30.585 116.402  0.00  0.00    +0.060 C 
BRANCH  27  28
ATOM     28  SD  MET A   1    -122.911  29.523 116.770  0.00  0.00    -0.139 S 
ATOM     29  CE  MET A   1    -123.095  28.232 115.521  0.00  0.00    +0.069 C 
ENDBRANCH  27  28
ENDBRANCH  26  27
ENDBRANCH  23  26
ENDBRANCH  19  23
ENDBRANCH  17  21
ENDBRANCH  13  17
ENDBRANCH  12  15
BRANCH  12  30
ATOM     30  CB  SER A   3    -123.701  31.118 120.211  0.00  0.00    +0.166 C 
BRANCH  30  31
ATOM     31  OG  SER A   3    -123.874  30.282 121.354  0.00  0.00    -0.380 OA
ATOM     32  H   SER A   3    -124.783  30.414 121.723  0.00  0.00    +0.211 HD
ENDBRANCH  30  31
ENDBRANCH  12  30
ENDBRANCH   8  12
ENDBRANCH   6   9
ENDBRANCH   2   6
ENDBRANCH   1   4
BRANCH   1  33
ATOM     33  C   GLN A   5    -121.662  29.294 124.381  0.00  0.00    +0.241 C 
ATOM     34  O   GLN A   5    -120.836  28.667 125.059  0.00  0.00    -0.273 OA
ATOM     35  N   VAL A   6    -121.503  29.469 123.070  0.00  0.00    -0.297 N 
ATOM     36  H   VAL A   6    -122.216  29.986 122.516  0.00  0.00    +0.150 HD
BRANCH  35  37
ATOM     37  CA  VAL A   6    -120.312  28.924 122.421  0.00  0.00    +0.149 C 
BRANCH  37  38
ATOM     38  C   VAL A   6    -119.075  29.673 122.888  0.00  0.00    +0.241 C 
ATOM     39  O   VAL A   6    -118.058  29.063 123.240  0.00  0.00    -0.273 OA
ATOM     40  N   LYS A   7    -119.151  30.994 122.902  0.00  0.00    -0.297 N 
ATOM     41  H   LYS A   7    -120.009  31.468 122.556  0.00  0.00    +0.150 HD
BRANCH  40  42
ATOM     42  CA  LYS A   7    -118.029  31.790 123.404  0.00  0.00    +0.149 C 
BRANCH  42  43
ATOM     43  C   LYS A   7    -117.689  31.335 124.833  0.00  0.00    +0.241 C 
ATOM     44  N   SER A   8    -118.722  31.143 125.654  0.00  0.00    -0.295 N 
ATOM     45  H   SER A   8    -119.689  31.272 125.295  0.00  0.00    +0.150 HD
ATOM     46  O   LYS A   7    -116.517  31.133 125.178  0.00  0.00    -0.273 OA
BRANCH  44  47
ATOM     47  CA  SER A   8    -118.521  30.754 127.053  0.00  0.00    +0.178 C 
BRANCH  47  48
ATOM     48  C   SER A   8    -117.874  29.384 127.211  0.00  0.00    +0.243 C 
ATOM     49  O   SER A   8    -116.994  29.205 128.035  0.00  0.00    -0.273 OA
ATOM     50  N   ALA A   9    -118.330  28.418 126.416  0.00  0.00    -0.298 N 
ATOM     51  H   ALA A   9    -119.090  28.631 125.739  0.00  0.00    +0.150 HD
BRANCH  50  52
ATOM     52  CA  ALA A   9    -117.786  27.071 126.475  0.00  0.00    +0.137 C 
ATOM     53  CB  ALA A   9    -118.568  26.141 125.545  0.00  0.00    +0.030 C 
BRANCH  52  54
ATOM     54  C   ALA A   9    -116.307  27.052 126.113  0.00  0.00    +0.227 C 
ATOM     55  O   ALA A   9    -115.527  26.372 126.759  0.00  0.00    -0.286 OA
ENDBRANCH  52  54
ENDBRANCH  50  52
ENDBRANCH  47  48
BRANCH  47  56
ATOM     56  CB  SER A   8    -119.854  30.767 127.791  0.00  0.00    +0.166 C 
BRANCH  56  57
ATOM     57  OG  SER A   8    -120.410  32.077 127.782  0.00  0.00    -0.380 OA
ATOM     58  H   SER A   8    -120.555  32.366 126.846  0.00  0.00    +0.211 HD
ENDBRANCH  56  57
ENDBRANCH  47  56
ENDBRANCH  44  47
ENDBRANCH  42  43
BRANCH  42  59
ATOM     59  CB  LYS A   7    -118.416  33.276 123.408  0.00  0.00    +0.029 C 
BRANCH  59  60
ATOM     60  CG  LYS A   7    -117.542  34.166 124.309  0.00  0.00    +0.000 C 
BRANCH  60  61
ATOM     61  CD  LYS A   7    -117.992  35.649 124.275  0.00  0.00    -0.024 C 
BRANCH  61  62
ATOM     62  CE  LYS A   7    -119.442  35.855 124.762  0.00  0.00    -0.086 C 
BRANCH  62  63
ATOM     63  NZ  LYS A   7    -119.720  37.323 124.847  0.00  0.00    +0.380 N 
ATOM     64  HZ1 LYS A   7    -119.057  37.762 125.518  0.00  0.00    -0.089 HD
ATOM     65  HZ2 LYS A   7    -120.696  37.471 125.175  0.00  0.00    -0.089 HD
ATOM     66  HZ3 LYS A   7    -119.599  37.752 123.907  0.00  0.00    -0.089 HD
ENDBRANCH  62  63
ENDBRANCH  61  62
ENDBRANCH  60  61
ENDBRANCH  59  60
ENDBRANCH  42  59
ENDBRANCH  40  42
ENDBRANCH  37  38
BRANCH  37  67
ATOM     67  CB  VAL A   6    -120.406  28.994 120.889  0.00  0.00    +0.027 C 
ATOM     68  CG2 VAL A   6    -121.551  28.067 120.425  0.00  0.00    +0.002 C 
ATOM     69  CG1 VAL A   6    -119.062  28.559 120.252  0.00  0.00    +0.002 C 
ENDBRANCH  37  67
ENDBRANCH  35  37
ENDBRANCH   1  33
BRANCH   1  70
ATOM     70  CB  GLN A   5    -124.094  28.959 124.925  0.00  0.00    +0.039 C 
BRANCH  70  71
ATOM     71  CG  GLN A   5    -125.263  29.371 125.806  0.00  0.00    +0.087 C 
BRANCH  71  72
ATOM     72  CD  GLN A   5    -126.360  28.325 125.834  0.00  0.00    +0.219 C 
ATOM     73  NE2 GLN A   5    -127.485  28.662 126.424  0.00  0.00    -0.329 N 
ATOM     74 HE21 GLN A   5    -127.596  29.614 126.828  0.00  0.00    +0.145 HD
ATOM     75 HE22 GLN A   5    -128.265  27.977 126.487  0.00  0.00    +0.145 HD
ATOM     76  OE1 GLN A   5    -126.182  27.218 125.344  0.00  0.00    -0.275 OA
ENDBRANCH  71  72
ENDBRANCH  70  71
ENDBRANCH   1  70
TORSDOF 34
REMARK  Name = ../refined-set-2016/2pqc/2pqc_pocket.pdb
REMARK  243 active torsions:
REMARK  status: ('A' for Active; 'I' for Inactive)
REMARK    1  A    between atoms: _1  and  _3
REMARK    2  A    between atoms: _3  and  _4
REMARK    3  A    between atoms: _3  and  _6
REMARK    4  A    between atoms: _6  and  _7
REMARK    5  A    between atoms: _10  and  _12
REMARK    6  A    between atoms: _12  and  _13
REMARK    7  A    between atoms: _12  and  _15
REMARK    8  A    between atoms: _15  and  _16
REMARK    9  A    between atoms: _16  and  _17
REMARK   10  A    between atoms: _17  and  _18
REMARK   11  A    between atoms: _18  and  _19
REMARK   12  A    between atoms: _23  and  _25
REMARK   13  A    between atoms: _25  and  _26
REMARK   14  A    between atoms: _25  and  _28
REMARK   15  A    between atoms: _28  and  _29
REMARK   16  A    between atoms: _31  and  _33
REMARK   17  A    between atoms: _33  and  _34
REMARK   18  A    between atoms: _33  and  _36
REMARK   19  A    between atoms: _36  and  _37
REMARK   20  A    between atoms: _40  and  _42
REMARK   21  A    between atoms: _42  and  _43
REMARK   22  A    between atoms: _42  and  _45
REMARK   23  A    between atoms: _45  and  _46
REMARK   24  A    between atoms: _48  and  _50
REMARK   25  A    between atoms: _50  and  _51
REMARK   26  A    between atoms: _50  and  _53
REMARK   27  A    between atoms: _53  and  _54
REMARK   28  A    between atoms: _59  and  _61
REMARK   29  A    between atoms: _61  and  _62
REMARK   30  A    between atoms: _61  and  _64
REMARK   31  A    between atoms: _64  and  _65
REMARK   32  A    between atoms: _65  and  _66
REMARK   33  A    between atoms: _66  and  _67
REMARK   34  A    between atoms: _76  and  _78
REMARK   35  A    between atoms: _78  and  _79
REMARK   36  A    between atoms: _78  and  _81
REMARK   37  A    between atoms: _81  and  _82
REMARK   38  A    between atoms: _85  and  _87
REMARK   39  A    between atoms: _87  and  _88
REMARK   40  A    between atoms: _87  and  _90
REMARK   41  A    between atoms: _90  and  _91
REMARK   42  A    between atoms: _96  and  _98
REMARK   43  A    between atoms: _98  and  _99
REMARK   44  A    between atoms: _102  and  _104
REMARK   45  A    between atoms: _104  and  _105
REMARK   46  A    between atoms: _108  and  _110
REMARK   47  A    between atoms: _110  and  _111
REMARK   48  A    between atoms: _110  and  _113
REMARK   49  A    between atoms: _113  and  _114
REMARK   50  A    between atoms: _117  and  _119
REMARK   51  A    between atoms: _119  and  _120
REMARK   52  A    between atoms: _122  and  _124
REMARK   53  A    between atoms: _124  and  _125
REMARK   54  A    between atoms: _124  and  _127
REMARK   55  A    between atoms: _129  and  _131
REMARK   56  A    between atoms: _131  and  _132
REMARK   57  A    between atoms: _131  and  _134
REMARK   58  A    between atoms: _134  and  _135
REMARK   59  A    between atoms: _135  and  _136
REMARK   60  A    between atoms: _136  and  _137
REMARK   61  A    between atoms: _146  and  _148
REMARK   62  A    between atoms: _148  and  _149
REMARK   63  A    between atoms: _148  and  _151
REMARK   64  A    between atoms: _151  and  _152
REMARK   65  A    between atoms: _155  and  _157
REMARK   66  A    between atoms: _157  and  _158
REMARK   67  A    between atoms: _157  and  _160
REMARK   68  A    between atoms: _160  and  _161
REMARK   69  A    between atoms: _163  and  _165
REMARK   70  A    between atoms: _165  and  _166
REMARK   71  A    between atoms: _165  and  _168
REMARK   72  A    between atoms: _168  and  _169
REMARK   73  A    between atoms: _172  and  _174
REMARK   74  A    between atoms: _174  and  _175
REMARK   75  A    between atoms: _174  and  _177
REMARK   76  A    between atoms: _177  and  _178
REMARK   77  A    between atoms: _178  and  _179
REMARK   78  A    between atoms: _179  and  _180
REMARK   79  A    between atoms: _190  and  _191
REMARK   80  A    between atoms: _196  and  _198
REMARK   81  A    between atoms: _198  and  _199
REMARK   82  A    between atoms: _198  and  _201
REMARK   83  A    between atoms: _201  and  _202
REMARK   84  A    between atoms: _202  and  _203
REMARK   85  A    between atoms: _203  and  _204
REMARK   86  A    between atoms: _213  and  _215
REMARK   87  A    between atoms: _215  and  _216
REMARK   88  A    between atoms: _215  and  _218
REMARK   89  A    between atoms: _221  and  _223
REMARK   90  A    between atoms: _223  and  _224
REMARK   91  A    between atoms: _223  and  _226
REMARK   92  A    between atoms: _229  and  _231
REMARK   93  A    between atoms: _231  and  _232
REMARK   94  A    between atoms: _231  and  _234
REMARK   95  A    between atoms: _234  and  _235
REMARK   96  A    between atoms: _235  and  _236
REMARK   97  A    between atoms: _238  and  _240
REMARK   98  A    between atoms: _240  and  _241
REMARK   99  A    between atoms: _244  and  _246
REMARK  100  A    between atoms: _246  and  _247
REMARK  101  A    between atoms: _246  and  _249
REMARK  102  A    between atoms: _249  and  _250
REMARK  103  A    between atoms: _252  and  _254
REMARK  104  A    between atoms: _254  and  _255
REMARK  105  A    between atoms: _258  and  _260
REMARK  106  A    between atoms: _260  and  _261
REMARK  107  A    between atoms: _260  and  _263
REMARK  108  A    between atoms: _263  and  _264
REMARK  109  A    between atoms: _264  and  _265
REMARK  110  A    between atoms: _270  and  _272
REMARK  111  A    between atoms: _272  and  _273
REMARK  112  A    between atoms: _272  and  _275
REMARK  113  A    between atoms: _278  and  _280
REMARK  114  A    between atoms: _280  and  _281
REMARK  115  A    between atoms: _280  and  _283
REMARK  116  A    between atoms: _283  and  _284
REMARK  117  A    between atoms: _284  and  _285
REMARK  118  A    between atoms: _285  and  _286
REMARK  119  A    between atoms: _286  and  _287
REMARK  120  A    between atoms: _291  and  _293
REMARK  121  A    between atoms: _293  and  _294
REMARK  122  A    between atoms: _293  and  _296
REMARK  123  A    between atoms: _296  and  _297
REMARK  124  A    between atoms: _299  and  _301
REMARK  125  A    between atoms: _301  and  _302
REMARK  126  A    between atoms: _305  and  _307
REMARK  127  A    between atoms: _307  and  _308
REMARK  128  A    between atoms: _307  and  _310
REMARK  129  A    between atoms: _310  and  _311
REMARK  130  A    between atoms: _314  and  _316
REMARK  131  A    between atoms: _316  and  _317
REMARK  132  A    between atoms: _316  and  _319
REMARK  133  A    between atoms: _319  and  _320
REMARK  134  A    between atoms: _320  and  _321
REMARK  135  A    between atoms: _321  and  _322
REMARK  136  A    between atoms: _331  and  _333
REMARK  137  A    between atoms: _333  and  _334
REMARK  138  A    between atoms: _333  and  _336
REMARK  139  A    between atoms: _336  and  _337
REMARK  140  A    between atoms: _340  and  _342
REMARK  141  A    between atoms: _342  and  _343
REMARK  142  A    between atoms: _342  and  _345
REMARK  143  A    between atoms: _345  and  _346
REMARK  144  A    between atoms: _351  and  _353
REMARK  145  A    between atoms: _353  and  _354
REMARK  146  A    between atoms: _353  and  _356
REMARK  147  A    between atoms: _356  and  _357
REMARK  148  A    between atoms: _360  and  _362
REMARK  149  A    between atoms: _362  and  _363
REMARK  150  A    between atoms: _362  and  _365
REMARK  151  A    between atoms: _365  and  _366
REMARK  152  A    between atoms: _369  and  _371
REMARK  153  A    between atoms: _371  and  _372
REMARK  154  A    between atoms: _371  and  _374
REMARK  155  A    between atoms: _374  and  _375
REMARK  156  A    between atoms: _377  and  _379
REMARK  157  A    between atoms: _379  and  _380
REMARK  158  A    between atoms: _379  and  _382
REMARK  159  A    between atoms: _382  and  _383
REMARK  160  A    between atoms: _383  and  _384
REMARK  161  A    between atoms: _384  and  _385
REMARK  162  A    between atoms: _394  and  _396
REMARK  163  A    between atoms: _396  and  _397
REMARK  164  A    between atoms: _401  and  _402
REMARK  165  A    between atoms: _407  and  _409
REMARK  166  A    between atoms: _409  and  _410
REMARK  167  A    between atoms: _409  and  _412
REMARK  168  A    between atoms: _412  and  _413
REMARK  169  A    between atoms: _413  and  _414
REMARK  170  A    between atoms: _416  and  _418
REMARK  171  A    between atoms: _418  and  _419
REMARK  172  A    between atoms: _418  and  _421
REMARK  173  A    between atoms: _421  and  _422
REMARK  174  A    between atoms: _425  and  _427
REMARK  175  A    between atoms: _427  and  _428
REMARK  176  A    between atoms: _427  and  _430
REMARK  177  A    between atoms: _430  and  _431
REMARK  178  A    between atoms: _434  and  _436
REMARK  179  A    between atoms: _436  and  _437
REMARK  180  A    between atoms: _436  and  _439
REMARK  181  A    between atoms: _439  and  _440
REMARK  182  A    between atoms: _440  and  _441
REMARK  183  A    between atoms: _445  and  _446
REMARK  184  A    between atoms: _451  and  _453
REMARK  185  A    between atoms: _453  and  _454
REMARK  186  A    between atoms: _453  and  _456
REMARK  187  A    between atoms: _456  and  _457
REMARK  188  A    between atoms: _457  and  _458
REMARK  189  A    between atoms: _461  and  _463
REMARK  190  A    between atoms: _463  and  _464
REMARK  191  A    between atoms: _463  and  _466
REMARK  192  A    between atoms: _466  and  _467
REMARK  193  A    between atoms: _470  and  _472
REMARK  194  A    between atoms: _472  and  _473
REMARK  195  A    between atoms: _472  and  _475
REMARK  196  A    between atoms: _478  and  _480
REMARK  197  A    between atoms: _480  and  _481
REMARK  198  A    between atoms: _480  and  _483
REMARK  199  A    between atoms: _483  and  _484
REMARK  200  A    between atoms: _484  and  _485
REMARK  201  A    between atoms: _485  and  _486
REMARK  202  A    between atoms: _486  and  _487
REMARK  203  A    between atoms: _491  and  _493
REMARK  204  A    between atoms: _493  and  _494
REMARK  205  A    between atoms: _493  and  _496
REMARK  206  A    between atoms: _496  and  _497
REMARK  207  A    between atoms: _497  and  _498
REMARK  208  A    between atoms: _501  and  _503
REMARK  209  A    between atoms: _503  and  _504
REMARK  210  A    between atoms: _503  and  _506
REMARK  211  A    between atoms: _506  and  _507
REMARK  212  A    between atoms: _509  and  _511
REMARK  213  A    between atoms: _511  and  _512
REMARK  214  A    between atoms: _511  and  _514
REMARK  215  A    between atoms: _514  and  _515
REMARK  216  A    between atoms: _515  and  _516
REMARK  217  A    between atoms: _516  and  _517
REMARK  218  A    between atoms: _526  and  _528
REMARK  219  A    between atoms: _528  and  _529
REMARK  220  A    between atoms: _528  and  _531
REMARK  221  A    between atoms: _531  and  _532
REMARK  222  A    between atoms: _535  and  _537
REMARK  223  A    between atoms: _537  and  _538
REMARK  224  A    between atoms: _537  and  _540
REMARK  225  A    between atoms: _540  and  _541
REMARK  226  A    between atoms: _546  and  _548
REMARK  227  A    between atoms: _548  and  _549
REMARK  228  A    between atoms: _548  and  _551
REMARK  229  A    between atoms: _551  and  _552
REMARK  230  A    between atoms: _552  and  _553
REMARK  231  A    between atoms: _553  and  _554
REMARK  232  A    between atoms: _563  and  _565
REMARK  233  A    between atoms: _565  and  _566
REMARK  234  A    between atoms: _565  and  _568
REMARK  235  A    between atoms: _568  and  _569
REMARK  236  A    between atoms: _572  and  _574
REMARK  237  A    between atoms: _574  and  _575
REMARK  238  A    between atoms: _574  and  _577
REMARK  239  A    between atoms: _577  and  _578
REMARK  240  A    between atoms: _581  and  _583
REMARK  241  A    between atoms: _583  and  _584
REMARK  242  A    between atoms: _583  and  _586
REMARK  243  A    between atoms: _586  and  _587
REMARK                            x       y       z     vdW  Elec       q    Type
REMARK                         _______ _______ _______ _____ _____    ______ ____
ROOT
ATOM      1  C   ARG A   2    -122.685  38.284 127.005  0.00  0.00    +0.241 C 
ATOM      2  N   ASP A   3    -122.166  39.162 127.853  0.00  0.00    -0.297 N 
ATOM      3  H   ASP A   3    -122.753  39.952 128.189  0.00  0.00    +0.150 HD
ATOM      4  O   ARG A   2    -122.117  37.260 126.648  0.00  0.00    -0.273 OA
ENDROOT
BRANCH   2   5
ATOM      5  CA  ASP A   3    -120.790  39.044 128.326  0.00  0.00    +0.160 C 
BRANCH   5   6
ATOM      6  C   ASP A   3    -120.592  38.695 129.787  0.00  0.00    +0.241 C 
ATOM      7  O   ASP A   3    -119.567  39.036 130.399  0.00  0.00    -0.273 OA
ATOM      8  N   HIS A   4    -121.551  37.964 130.340  0.00  0.00    -0.297 N 
ATOM      9  H   HIS A   4    -122.379  37.680 129.778  0.00  0.00    +0.150 HD
BRANCH   8  10
ATOM     10  CA  HIS A   4    -121.442  37.560 131.736  0.00  0.00    +0.155 C 
BRANCH  10  11
ATOM     11  C   HIS A   4    -120.216  36.710 132.016  0.00  0.00    +0.241 C 
ATOM     12  O   HIS A   4    -119.571  36.863 133.057  0.00  0.00    -0.273 OA
ATOM     13  N   THR A   5    -119.856  35.830 131.083  0.00  0.00    -0.296 N 
ATOM     14  H   THR A   5    -120.409  35.742 130.206  0.00  0.00    +0.150 HD
BRANCH  13  15
ATOM     15  CA  THR A   5    -118.683  34.990 131.297  0.00  0.00    +0.164 C 
BRANCH  15  16
ATOM     16  CB  THR A   5    -118.510  33.994 130.145  0.00  0.00    +0.136 C 
ATOM     17  CG2 THR A   5    -117.226  33.170 130.317  0.00  0.00    +0.034 C 
BRANCH  16  18
ATOM     18  OG1 THR A   5    -119.635  33.114 130.151  0.00  0.00    -0.382 OA
ATOM     19  HG1 THR A   5    -119.545  32.460 129.413  0.00  0.00    +0.210 HD
ENDBRANCH  16  18
ENDBRANCH  15  16
BRANCH  15  20
ATOM     20  C   THR A   5    -117.424  35.837 131.435  0.00  0.00    +0.229 C 
ATOM     21  O   THR A   5    -116.667  35.668 132.398  0.00  0.00    -0.286 OA
ENDBRANCH  15  20
ENDBRANCH  13  15
ENDBRANCH  10  11
BRANCH  10  22
ATOM     22  CB  HIS A   4    -122.703  36.818 132.137  0.00  0.00    +0.076 C 
BRANCH  22  23
ATOM     23  CG  HIS A   4    -123.941  37.591 131.831  0.00  0.00    +0.082 A 
ATOM     24  ND1 HIS A   4    -124.157  38.858 132.321  0.00  0.00    -0.227 NA
ATOM     25  CE1 HIS A   4    -125.315  39.308 131.867  0.00  0.00    +0.199 A 
ATOM     26  NE2 HIS A   4    -125.856  38.376 131.105  0.00  0.00    -0.221 NA
ATOM     27  CD2 HIS A   4    -125.017  37.289 131.064  0.00  0.00    +0.115 A 
ENDBRANCH  22  23
ENDBRANCH  10  22
ENDBRANCH   8  10
ENDBRANCH   5   6
BRANCH   5  28
ATOM     28  CB  ASP A   3    -120.071  40.346 127.977  0.00  0.00    +0.143 C 
BRANCH  28  29
ATOM     29  CG  ASP A   3    -120.722  41.578 128.608  0.00  0.00    +0.367 C 
ATOM     30  OD2 ASP A   3    -121.875  41.489 129.092  0.00  0.00    -0.246 OA
ATOM     31  OD1 ASP A   3    -120.078  42.653 128.604  0.00  0.00    -0.246 OA
ENDBRANCH  28  29
ENDBRANCH   5  28
ENDBRANCH   2   5
BRANCH   1  32
ATOM     32  CA  ARG A   2    -124.064  38.667 126.480  0.00  0.00    +0.149 C 
BRANCH  32  34
ATOM     33  C   THR A   1    -123.167  38.846 124.248  0.00  0.00    +0.241 C 
ATOM     34  N   ARG A   2    -124.147  38.413 125.038  0.00  0.00    -0.297 N 
ATOM     35  H   ARG A   2    -124.960  37.902 124.638  0.00  0.00    +0.150 HD
ATOM     36  O   THR A   1    -122.135  39.384 124.691  0.00  0.00    -0.274 OA
BRANCH  33  37
ATOM     37  CA  THR A   1    -123.316  38.623 122.740  0.00  0.00    +0.172 C 
BRANCH  37  38
ATOM     38  CB  THR A   1    -123.198  37.131 122.408  0.00  0.00    +0.135 C 
ATOM     39  CG2 THR A   1    -123.213  36.920 120.899  0.00  0.00    +0.034 C 
BRANCH  38  40
ATOM     40  OG1 THR A   1    -121.971  36.618 122.925  0.00  0.00    -0.383 OA
ATOM     41  HG1 THR A   1    -121.213  37.106 122.517  0.00  0.00    +0.210 HD
ENDBRANCH  38  40
ENDBRANCH  37  38
BRANCH  37  42
ATOM     42  N   THR A   1    -122.241  39.403 122.125  0.00  0.00    -0.236 NA
ATOM     43  H   THR A   1    -121.257  39.230 122.415  0.00  0.00    +0.142 HD
ENDBRANCH  37  42
ENDBRANCH  33  37
ENDBRANCH  32  34
BRANCH  32  44
ATOM     44  CB  ARG A   2    -125.206  38.009 127.253  0.00  0.00    +0.033 C 
BRANCH  44  45
ATOM     45  CG  ARG A   2    -125.230  36.528 127.272  0.00  0.00    +0.045 C 
BRANCH  45  46
ATOM     46  CD  ARG A   2    -126.575  36.049 127.869  0.00  0.00    +0.174 C 
BRANCH  46  47
ATOM     47  NE  ARG A   2    -127.677  36.341 126.971  0.00  0.00    -0.265 N 
ATOM     48  CZ  ARG A   2    -128.955  36.070 127.231  0.00  0.00    +0.342 C 
ATOM     49  NH2 ARG A   2    -129.319  35.498 128.393  0.00  0.00    -0.292 N 
ATOM     50 HH21 ARG A   2    -128.598  35.261 129.104  0.00  0.00    +0.255 HD
ATOM     51 HH22 ARG A   2    -130.321  35.293 128.580  0.00  0.00    +0.255 HD
ATOM     52  NH1 ARG A   2    -129.877  36.348 126.315  0.00  0.00    -0.292 N 
ATOM     53 HH11 ARG A   2    -130.878  36.141 126.506  0.00  0.00    +0.255 HD
ATOM     54 HH12 ARG A   2    -129.597  36.772 125.408  0.00  0.00    +0.255 HD
ATOM     55  HE  ARG A   2    -127.453  36.793 126.062  0.00  0.00    +0.259 HD
ENDBRANCH  46  47
ENDBRANCH  45  46
ENDBRANCH  44  45
ENDBRANCH  32  44
ENDBRANCH   1  32
TORSDOF 22
REMARK  Name = ../refined-set-2016/2pqc/2pqc_pocket.pdb
REMARK  243 active torsions:
REMARK  status: ('A' for Active; 'I' for Inactive)
REMARK    1  A    between atoms: _1  and  _3
REMARK    2  A    between atoms: _3  and  _4
REMARK    3  A    between atoms: _3  and  _6
REMARK    4  A    between atoms: _6  and  _7
REMARK    5  A    between atoms: _10  and  _12
REMARK    6  A    between atoms: _12  and  _13
REMARK    7  A    between atoms: _12  and  _15
REMARK    8  A    between atoms: _15  and  _16
REMARK    9  A    between atoms: _16  and  _17
REMARK   10  A    between atoms: _17  and  _18
REMARK   11  A    between atoms: _18  and  _19
REMARK   12  A    between atoms: _23  and  _25
REMARK   13  A    between atoms: _25  and  _26
REMARK   14  A    between atoms: _25  and  _28
REMARK   15  A    between atoms: _28  and  _29
REMARK   16  A    between atoms: _31  and  _33
REMARK   17  A    between atoms: _33  and  _34
REMARK   18  A    between atoms: _33  and  _36
REMARK   19  A    between atoms: _36  and  _37
REMARK   20  A    between atoms: _40  and  _42
REMARK   21  A    between atoms: _42  and  _43
REMARK   22  A    between atoms: _42  and  _45
REMARK   23  A    between atoms: _45  and  _46
REMARK   24  A    between atoms: _48  and  _50
REMARK   25  A    between atoms: _50  and  _51
REMARK   26  A    between atoms: _50  and  _53
REMARK   27  A    between atoms: _53  and  _54
REMARK   28  A    between atoms: _59  and  _61
REMARK   29  A    between atoms: _61  and  _62
REMARK   30  A    between atoms: _61  and  _64
REMARK   31  A    between atoms: _64  and  _65
REMARK   32  A    between atoms: _65  and  _66
REMARK   33  A    between atoms: _66  and  _67
REMARK   34  A    between atoms: _76  and  _78
REMARK   35  A    between atoms: _78  and  _79
REMARK   36  A    between atoms: _78  and  _81
REMARK   37  A    between atoms: _81  and  _82
REMARK   38  A    between atoms: _85  and  _87
REMARK   39  A    between atoms: _87  and  _88
REMARK   40  A    between atoms: _87  and  _90
REMARK   41  A    between atoms: _90  and  _91
REMARK   42  A    between atoms: _96  and  _98
REMARK   43  A    between atoms: _98  and  _99
REMARK   44  A    between atoms: _102  and  _104
REMARK   45  A    between atoms: _104  and  _105
REMARK   46  A    between atoms: _108  and  _110
REMARK   47  A    between atoms: _110  and  _111
REMARK   48  A    between atoms: _110  and  _113
REMARK   49  A    between atoms: _113  and  _114
REMARK   50  A    between atoms: _117  and  _119
REMARK   51  A    between atoms: _119  and  _120
REMARK   52  A    between atoms: _122  and  _124
REMARK   53  A    between atoms: _124  and  _125
REMARK   54  A    between atoms: _124  and  _127
REMARK   55  A    between atoms: _129  and  _131
REMARK   56  A    between atoms: _131  and  _132
REMARK   57  A    between atoms: _131  and  _134
REMARK   58  A    between atoms: _134  and  _135
REMARK   59  A    between atoms: _135  and  _136
REMARK   60  A    between atoms: _136  and  _137
REMARK   61  A    between atoms: _146  and  _148
REMARK   62  A    between atoms: _148  and  _149
REMARK   63  A    between atoms: _148  and  _151
REMARK   64  A    between atoms: _151  and  _152
REMARK   65  A    between atoms: _155  and  _157
REMARK   66  A    between atoms: _157  and  _158
REMARK   67  A    between atoms: _157  and  _160
REMARK   68  A    between atoms: _160  and  _161
REMARK   69  A    between atoms: _163  and  _165
REMARK   70  A    between atoms: _165  and  _166
REMARK   71  A    between atoms: _165  and  _168
REMARK   72  A    between atoms: _168  and  _169
REMARK   73  A    between atoms: _172  and  _174
REMARK   74  A    between atoms: _174  and  _175
REMARK   75  A    between atoms: _174  and  _177
REMARK   76  A    between atoms: _177  and  _178
REMARK   77  A    between atoms: _178  and  _179
REMARK   78  A    between atoms: _179  and  _180
REMARK   79  A    between atoms: _190  and  _191
REMARK   80  A    between atoms: _196  and  _198
REMARK   81  A    between atoms: _198  and  _199
REMARK   82  A    between atoms: _198  and  _201
REMARK   83  A    between atoms: _201  and  _202
REMARK   84  A    between atoms: _202  and  _203
REMARK   85  A    between atoms: _203  and  _204
REMARK   86  A    between atoms: _213  and  _215
REMARK   87  A    between atoms: _215  and  _216
REMARK   88  A    between atoms: _215  and  _218
REMARK   89  A    between atoms: _221  and  _223
REMARK   90  A    between atoms: _223  and  _224
REMARK   91  A    between atoms: _223  and  _226
REMARK   92  A    between atoms: _229  and  _231
REMARK   93  A    between atoms: _231  and  _232
REMARK   94  A    between atoms: _231  and  _234
REMARK   95  A    between atoms: _234  and  _235
REMARK   96  A    between atoms: _235  and  _236
REMARK   97  A    between atoms: _238  and  _240
REMARK   98  A    between atoms: _240  and  _241
REMARK   99  A    between atoms: _244  and  _246
REMARK  100  A    between atoms: _246  and  _247
REMARK  101  A    between atoms: _246  and  _249
REMARK  102  A    between atoms: _249  and  _250
REMARK  103  A    between atoms: _252  and  _254
REMARK  104  A    between atoms: _254  and  _255
REMARK  105  A    between atoms: _258  and  _260
REMARK  106  A    between atoms: _260  and  _261
REMARK  107  A    between atoms: _260  and  _263
REMARK  108  A    between atoms: _263  and  _264
REMARK  109  A    between atoms: _264  and  _265
REMARK  110  A    between atoms: _270  and  _272
REMARK  111  A    between atoms: _272  and  _273
REMARK  112  A    between atoms: _272  and  _275
REMARK  113  A    between atoms: _278  and  _280
REMARK  114  A    between atoms: _280  and  _281
REMARK  115  A    between atoms: _280  and  _283
REMARK  116  A    between atoms: _283  and  _284
REMARK  117  A    between atoms: _284  and  _285
REMARK  118  A    between atoms: _285  and  _286
REMARK  119  A    between atoms: _286  and  _287
REMARK  120  A    between atoms: _291  and  _293
REMARK  121  A    between atoms: _293  and  _294
REMARK  122  A    between atoms: _293  and  _296
REMARK  123  A    between atoms: _296  and  _297
REMARK  124  A    between atoms: _299  and  _301
REMARK  125  A    between atoms: _301  and  _302
REMARK  126  A    between atoms: _305  and  _307
REMARK  127  A    between atoms: _307  and  _308
REMARK  128  A    between atoms: _307  and  _310
REMARK  129  A    between atoms: _310  and  _311
REMARK  130  A    between atoms: _314  and  _316
REMARK  131  A    between atoms: _316  and  _317
REMARK  132  A    between atoms: _316  and  _319
REMARK  133  A    between atoms: _319  and  _320
REMARK  134  A    between atoms: _320  and  _321
REMARK  135  A    between atoms: _321  and  _322
REMARK  136  A    between atoms: _331  and  _333
REMARK  137  A    between atoms: _333  and  _334
REMARK  138  A    between atoms: _333  and  _336
REMARK  139  A    between atoms: _336  and  _337
REMARK  140  A    between atoms: _340  and  _342
REMARK  141  A    between atoms: _342  and  _343
REMARK  142  A    between atoms: _342  and  _345
REMARK  143  A    between atoms: _345  and  _346
REMARK  144  A    between atoms: _351  and  _353
REMARK  145  A    between atoms: _353  and  _354
REMARK  146  A    between atoms: _353  and  _356
REMARK  147  A    between atoms: _356  and  _357
REMARK  148  A    between atoms: _360  and  _362
REMARK  149  A    between atoms: _362  and  _363
REMARK  150  A    between atoms: _362  and  _365
REMARK  151  A    between atoms: _365  and  _366
REMARK  152  A    between atoms: _369  and  _371
REMARK  153  A    between atoms: _371  and  _372
REMARK  154  A    between atoms: _371  and  _374
REMARK  155  A    between atoms: _374  and  _375
REMARK  156  A    between atoms: _377  and  _379
REMARK  157  A    between atoms: _379  and  _380
REMARK  158  A    between atoms: _379  and  _382
REMARK  159  A    between atoms: _382  and  _383
REMARK  160  A    between atoms: _383  and  _384
REMARK  161  A    between atoms: _384  and  _385
REMARK  162  A    between atoms: _394  and  _396
REMARK  163  A    between atoms: _396  and  _397
REMARK  164  A    between atoms: _401  and  _402
REMARK  165  A    between atoms: _407  and  _409
REMARK  166  A    between atoms: _409  and  _410
REMARK  167  A    between atoms: _409  and  _412
REMARK  168  A    between atoms: _412  and  _413
REMARK  169  A    between atoms: _413  and  _414
REMARK  170  A    between atoms: _416  and  _418
REMARK  171  A    between atoms: _418  and  _419
REMARK  172  A    between atoms: _418  and  _421
REMARK  173  A    between atoms: _421  and  _422
REMARK  174  A    between atoms: _425  and  _427
REMARK  175  A    between atoms: _427  and  _428
REMARK  176  A    between atoms: _427  and  _430
REMARK  177  A    between atoms: _430  and  _431
REMARK  178  A    between atoms: _434  and  _436
REMARK  179  A    between atoms: _436  and  _437
REMARK  180  A    between atoms: _436  and  _439
REMARK  181  A    between atoms: _439  and  _440
REMARK  182  A    between atoms: _440  and  _441
REMARK  183  A    between atoms: _445  and  _446
REMARK  184  A    between atoms: _451  and  _453
REMARK  185  A    between atoms: _453  and  _454
REMARK  186  A    between atoms: _453  and  _456
REMARK  187  A    between atoms: _456  and  _457
REMARK  188  A    between atoms: _457  and  _458
REMARK  189  A    between atoms: _461  and  _463
REMARK  190  A    between atoms: _463  and  _464
REMARK  191  A    between atoms: _463  and  _466
REMARK  192  A    between atoms: _466  and  _467
REMARK  193  A    between atoms: _470  and  _472
REMARK  194  A    between atoms: _472  and  _473
REMARK  195  A    between atoms: _472  and  _475
REMARK  196  A    between atoms: _478  and  _480
REMARK  197  A    between atoms: _480  and  _481
REMARK  198  A    between atoms: _480  and  _483
REMARK  199  A    between atoms: _483  and  _484
REMARK  200  A    between atoms: _484  and  _485
REMARK  201  A    between atoms: _485  and  _486
REMARK  202  A    between atoms: _486  and  _487
REMARK  203  A    between atoms: _491  and  _493
REMARK  204  A    between atoms: _493  and  _494
REMARK  205  A    between atoms: _493  and  _496
REMARK  206  A    between atoms: _496  and  _497
REMARK  207  A    between atoms: _497  and  _498
REMARK  208  A    between atoms: _501  and  _503
REMARK  209  A    between atoms: _503  and  _504
REMARK  210  A    between atoms: _503  and  _506
REMARK  211  A    between atoms: _506  and  _507
REMARK  212  A    between atoms: _509  and  _511
REMARK  213  A    between atoms: _511  and  _512
REMARK  214  A    between atoms: _511  and  _514
REMARK  215  A    between atoms: _514  and  _515
REMARK  216  A    between atoms: _515  and  _516
REMARK  217  A    between atoms: _516  and  _517
REMARK  218  A    between atoms: _526  and  _528
REMARK  219  A    between atoms: _528  and  _529
REMARK  220  A    between atoms: _528  and  _531
REMARK  221  A    between atoms: _531  and  _532
REMARK  222  A    between atoms: _535  and  _537
REMARK  223  A    between atoms: _537  and  _538
REMARK  224  A    between atoms: _537  and  _540
REMARK  225  A    between atoms: _540  and  _541
REMARK  226  A    between atoms: _546  and  _548
REMARK  227  A    between atoms: _548  and  _549
REMARK  228  A    between atoms: _548  and  _551
REMARK  229  A    between atoms: _551  and  _552
REMARK  230  A    between atoms: _552  and  _553
REMARK  231  A    between atoms: _553  and  _554
REMARK  232  A    between atoms: _563  and  _565
REMARK  233  A    between atoms: _565  and  _566
REMARK  234  A    between atoms: _565  and  _568
REMARK  235  A    between atoms: _568  and  _569
REMARK  236  A    between atoms: _572  and  _574
REMARK  237  A    between atoms: _574  and  _575
REMARK  238  A    between atoms: _574  and  _577
REMARK  239  A    between atoms: _577  and  _578
REMARK  240  A    between atoms: _581  and  _583
REMARK  241  A    between atoms: _583  and  _584
REMARK  242  A    between atoms: _583  and  _586
REMARK  243  A    between atoms: _586  and  _587
REMARK                            x       y       z     vdW  Elec       q    Type
REMARK                         _______ _______ _______ _____ _____    ______ ____
ROOT
ATOM      1  CA  ASP A   1    -133.405  38.796 135.262  0.00  0.00    +0.144 C 
ENDROOT
BRANCH   1   2
ATOM      2  N   ASP A   1    -133.413  39.329 136.627  0.00  0.00    -0.239 NA
ATOM      3  H   ASP A   1    -133.943  38.814 137.359  0.00  0.00    +0.142 HD
ENDBRANCH   1   2
BRANCH   1   4
ATOM      4  C   ASP A   1    -134.192  39.692 134.284  0.00  0.00    +0.225 C 
ATOM      5  O   ASP A   1    -135.402  39.860 134.414  0.00  0.00    -0.287 OA
ENDBRANCH   1   4
BRANCH   1   6
ATOM      6  CB  ASP A   1    -133.988  37.377 135.319  0.00  0.00    +0.139 C 
BRANCH   6   7
ATOM      7  CG  ASP A   1    -133.738  36.598 134.057  0.00  0.00    +0.367 C 
ATOM      8  OD2 ASP A   1    -133.293  35.419 134.131  0.00  0.00    -0.246 OA
ATOM      9  OD1 ASP A   1    -134.002  37.170 132.977  0.00  0.00    -0.246 OA
ENDBRANCH   6   7
ENDBRANCH   1   6
TORSDOF 4
REMARK  Name = ../refined-set-2016/2pqc/2pqc_pocket.pdb
REMARK  243 active torsions:
REMARK  status: ('A' for Active; 'I' for Inactive)
REMARK    1  A    between atoms: _1  and  _3
REMARK    2  A    between atoms: _3  and  _4
REMARK    3  A    between atoms: _3  and  _6
REMARK    4  A    between atoms: _6  and  _7
REMARK    5  A    between atoms: _10  and  _12
REMARK    6  A    between atoms: _12  and  _13
REMARK    7  A    between atoms: _12  and  _15
REMARK    8  A    between atoms: _15  and  _16
REMARK    9  A    between atoms: _16  and  _17
REMARK   10  A    between atoms: _17  and  _18
REMARK   11  A    between atoms: _18  and  _19
REMARK   12  A    between atoms: _23  and  _25
REMARK   13  A    between atoms: _25  and  _26
REMARK   14  A    between atoms: _25  and  _28
REMARK   15  A    between atoms: _28  and  _29
REMARK   16  A    between atoms: _31  and  _33
REMARK   17  A    between atoms: _33  and  _34
REMARK   18  A    between atoms: _33  and  _36
REMARK   19  A    between atoms: _36  and  _37
REMARK   20  A    between atoms: _40  and  _42
REMARK   21  A    between atoms: _42  and  _43
REMARK   22  A    between atoms: _42  and  _45
REMARK   23  A    between atoms: _45  and  _46
REMARK   24  A    between atoms: _48  and  _50
REMARK   25  A    between atoms: _50  and  _51
REMARK   26  A    between atoms: _50  and  _53
REMARK   27  A    between atoms: _53  and  _54
REMARK   28  A    between atoms: _59  and  _61
REMARK   29  A    between atoms: _61  and  _62
REMARK   30  A    between atoms: _61  and  _64
REMARK   31  A    between atoms: _64  and  _65
REMARK   32  A    between atoms: _65  and  _66
REMARK   33  A    between atoms: _66  and  _67
REMARK   34  A    between atoms: _76  and  _78
REMARK   35  A    between atoms: _78  and  _79
REMARK   36  A    between atoms: _78  and  _81
REMARK   37  A    between atoms: _81  and  _82
REMARK   38  A    between atoms: _85  and  _87
REMARK   39  A    between atoms: _87  and  _88
REMARK   40  A    between atoms: _87  and  _90
REMARK   41  A    between atoms: _90  and  _91
REMARK   42  A    between atoms: _96  and  _98
REMARK   43  A    between atoms: _98  and  _99
REMARK   44  A    between atoms: _102  and  _104
REMARK   45  A    between atoms: _104  and  _105
REMARK   46  A    between atoms: _108  and  _110
REMARK   47  A    between atoms: _110  and  _111
REMARK   48  A    between atoms: _110  and  _113
REMARK   49  A    between atoms: _113  and  _114
REMARK   50  A    between atoms: _117  and  _119
REMARK   51  A    between atoms: _119  and  _120
REMARK   52  A    between atoms: _122  and  _124
REMARK   53  A    between atoms: _124  and  _125
REMARK   54  A    between atoms: _124  and  _127
REMARK   55  A    between atoms: _129  and  _131
REMARK   56  A    between atoms: _131  and  _132
REMARK   57  A    between atoms: _131  and  _134
REMARK   58  A    between atoms: _134  and  _135
REMARK   59  A    between atoms: _135  and  _136
REMARK   60  A    between atoms: _136  and  _137
REMARK   61  A    between atoms: _146  and  _148
REMARK   62  A    between atoms: _148  and  _149
REMARK   63  A    between atoms: _148  and  _151
REMARK   64  A    between atoms: _151  and  _152
REMARK   65  A    between atoms: _155  and  _157
REMARK   66  A    between atoms: _157  and  _158
REMARK   67  A    between atoms: _157  and  _160
REMARK   68  A    between atoms: _160  and  _161
REMARK   69  A    between atoms: _163  and  _165
REMARK   70  A    between atoms: _165  and  _166
REMARK   71  A    between atoms: _165  and  _168
REMARK   72  A    between atoms: _168  and  _169
REMARK   73  A    between atoms: _172  and  _174
REMARK   74  A    between atoms: _174  and  _175
REMARK   75  A    between atoms: _174  and  _177
REMARK   76  A    between atoms: _177  and  _178
REMARK   77  A    between atoms: _178  and  _179
REMARK   78  A    between atoms: _179  and  _180
REMARK   79  A    between atoms: _190  and  _191
REMARK   80  A    between atoms: _196  and  _198
REMARK   81  A    between atoms: _198  and  _199
REMARK   82  A    between atoms: _198  and  _201
REMARK   83  A    between atoms: _201  and  _202
REMARK   84  A    between atoms: _202  and  _203
REMARK   85  A    between atoms: _203  and  _204
REMARK   86  A    between atoms: _213  and  _215
REMARK   87  A    between atoms: _215  and  _216
REMARK   88  A    between atoms: _215  and  _218
REMARK   89  A    between atoms: _221  and  _223
REMARK   90  A    between atoms: _223  and  _224
REMARK   91  A    between atoms: _223  and  _226
REMARK   92  A    between atoms: _229  and  _231
REMARK   93  A    between atoms: _231  and  _232
REMARK   94  A    between atoms: _231  and  _234
REMARK   95  A    between atoms: _234  and  _235
REMARK   96  A    between atoms: _235  and  _236
REMARK   97  A    between atoms: _238  and  _240
REMARK   98  A    between atoms: _240  and  _241
REMARK   99  A    between atoms: _244  and  _246
REMARK  100  A    between atoms: _246  and  _247
REMARK  101  A    between atoms: _246  and  _249
REMARK  102  A    between atoms: _249  and  _250
REMARK  103  A    between atoms: _252  and  _254
REMARK  104  A    between atoms: _254  and  _255
REMARK  105  A    between atoms: _258  and  _260
REMARK  106  A    between atoms: _260  and  _261
REMARK  107  A    between atoms: _260  and  _263
REMARK  108  A    between atoms: _263  and  _264
REMARK  109  A    between atoms: _264  and  _265
REMARK  110  A    between atoms: _270  and  _272
REMARK  111  A    between atoms: _272  and  _273
REMARK  112  A    between atoms: _272  and  _275
REMARK  113  A    between atoms: _278  and  _280
REMARK  114  A    between atoms: _280  and  _281
REMARK  115  A    between atoms: _280  and  _283
REMARK  116  A    between atoms: _283  and  _284
REMARK  117  A    between atoms: _284  and  _285
REMARK  118  A    between atoms: _285  and  _286
REMARK  119  A    between atoms: _286  and  _287
REMARK  120  A    between atoms: _291  and  _293
REMARK  121  A    between atoms: _293  and  _294
REMARK  122  A    between atoms: _293  and  _296
REMARK  123  A    between atoms: _296  and  _297
REMARK  124  A    between atoms: _299  and  _301
REMARK  125  A    between atoms: _301  and  _302
REMARK  126  A    between atoms: _305  and  _307
REMARK  127  A    between atoms: _307  and  _308
REMARK  128  A    between atoms: _307  and  _310
REMARK  129  A    between atoms: _310  and  _311
REMARK  130  A    between atoms: _314  and  _316
REMARK  131  A    between atoms: _316  and  _317
REMARK  132  A    between atoms: _316  and  _319
REMARK  133  A    between atoms: _319  and  _320
REMARK  134  A    between atoms: _320  and  _321
REMARK  135  A    between atoms: _321  and  _322
REMARK  136  A    between atoms: _331  and  _333
REMARK  137  A    between atoms: _333  and  _334
REMARK  138  A    between atoms: _333  and  _336
REMARK  139  A    between atoms: _336  and  _337
REMARK  140  A    between atoms: _340  and  _342
REMARK  141  A    between atoms: _342  and  _343
REMARK  142  A    between atoms: _342  and  _345
REMARK  143  A    between atoms: _345  and  _346
REMARK  144  A    between atoms: _351  and  _353
REMARK  145  A    between atoms: _353  and  _354
REMARK  146  A    between atoms: _353  and  _356
REMARK  147  A    between atoms: _356  and  _357
REMARK  148  A    between atoms: _360  and  _362
REMARK  149  A    between atoms: _362  and  _363
REMARK  150  A    between atoms: _362  and  _365
REMARK  151  A    between atoms: _365  and  _366
REMARK  152  A    between atoms: _369  and  _371
REMARK  153  A    between atoms: _371  and  _372
REMARK  154  A    between atoms: _371  and  _374
REMARK  155  A    between atoms: _374  and  _375
REMARK  156  A    between atoms: _377  and  _379
REMARK  157  A    between atoms: _379  and  _380
REMARK  158  A    between atoms: _379  and  _382
REMARK  159  A    between atoms: _382  and  _383
REMARK  160  A    between atoms: _383  and  _384
REMARK  161  A    between atoms: _384  and  _385
REMARK  162  A    between atoms: _394  and  _396
REMARK  163  A    between atoms: _396  and  _397
REMARK  164  A    between atoms: _401  and  _402
REMARK  165  A    between atoms: _407  and  _409
REMARK  166  A    between atoms: _409  and  _410
REMARK  167  A    between atoms: _409  and  _412
REMARK  168  A    between atoms: _412  and  _413
REMARK  169  A    between atoms: _413  and  _414
REMARK  170  A    between atoms: _416  and  _418
REMARK  171  A    between atoms: _418  and  _419
REMARK  172  A    between atoms: _418  and  _421
REMARK  173  A    between atoms: _421  and  _422
REMARK  174  A    between atoms: _425  and  _427
REMARK  175  A    between atoms: _427  and  _428
REMARK  176  A    between atoms: _427  and  _430
REMARK  177  A    between atoms: _430  and  _431
REMARK  178  A    between atoms: _434  and  _436
REMARK  179  A    between atoms: _436  and  _437
REMARK  180  A    between atoms: _436  and  _439
REMARK  181  A    between atoms: _439  and  _440
REMARK  182  A    between atoms: _440  and  _441
REMARK  183  A    between atoms: _445  and  _446
REMARK  184  A    between atoms: _451  and  _453
REMARK  185  A    between atoms: _453  and  _454
REMARK  186  A    between atoms: _453  and  _456
REMARK  187  A    between atoms: _456  and  _457
REMARK  188  A    between atoms: _457  and  _458
REMARK  189  A    between atoms: _461  and  _463
REMARK  190  A    between atoms: _463  and  _464
REMARK  191  A    between atoms: _463  and  _466
REMARK  192  A    between atoms: _466  and  _467
REMARK  193  A    between atoms: _470  and  _472
REMARK  194  A    between atoms: _472  and  _473
REMARK  195  A    between atoms: _472  and  _475
REMARK  196  A    between atoms: _478  and  _480
REMARK  197  A    between atoms: _480  and  _481
REMARK  198  A    between atoms: _480  and  _483
REMARK  199  A    between atoms: _483  and  _484
REMARK  200  A    between atoms: _484  and  _485
REMARK  201  A    between atoms: _485  and  _486
REMARK  202  A    between atoms: _486  and  _487
REMARK  203  A    between atoms: _491  and  _493
REMARK  204  A    between atoms: _493  and  _494
REMARK  205  A    between atoms: _493  and  _496
REMARK  206  A    between atoms: _496  and  _497
REMARK  207  A    between atoms: _497  and  _498
REMARK  208  A    between atoms: _501  and  _503
REMARK  209  A    between atoms: _503  and  _504
REMARK  210  A    between atoms: _503  and  _506
REMARK  211  A    between atoms: _506  and  _507
REMARK  212  A    between atoms: _509  and  _511
REMARK  213  A    between atoms: _511  and  _512
REMARK  214  A    between atoms: _511  and  _514
REMARK  215  A    between atoms: _514  and  _515
REMARK  216  A    between atoms: _515  and  _516
REMARK  217  A    between atoms: _516  and  _517
REMARK  218  A    between atoms: _526  and  _528
REMARK  219  A    between atoms: _528  and  _529
REMARK  220  A    between atoms: _528  and  _531
REMARK  221  A    between atoms: _531  and  _532
REMARK  222  A    between atoms: _535  and  _537
REMARK  223  A    between atoms: _537  and  _538
REMARK  224  A    between atoms: _537  and  _540
REMARK  225  A    between atoms: _540  and  _541
REMARK  226  A    between atoms: _546  and  _548
REMARK  227  A    between atoms: _548  and  _549
REMARK  228  A    between atoms: _548  and  _551
REMARK  229  A    between atoms: _551  and  _552
REMARK  230  A    between atoms: _552  and  _553
REMARK  231  A    between atoms: _553  and  _554
REMARK  232  A    between atoms: _563  and  _565
REMARK  233  A    between atoms: _565  and  _566
REMARK  234  A    between atoms: _565  and  _568
REMARK  235  A    between atoms: _568  and  _569
REMARK  236  A    between atoms: _572  and  _574
REMARK  237  A    between atoms: _574  and  _575
REMARK  238  A    between atoms: _574  and  _577
REMARK  239  A    between atoms: _577  and  _578
REMARK  240  A    between atoms: _581  and  _583
REMARK  241  A    between atoms: _583  and  _584
REMARK  242  A    between atoms: _583  and  _586
REMARK  243  A    between atoms: _586  and  _587
REMARK                            x       y       z     vdW  Elec       q    Type
REMARK                         _______ _______ _______ _____ _____    ______ ____
ROOT
ATOM      1  CA  SER A   1    -135.705  38.221 130.305  0.00  0.00    +0.163 C 
ENDROOT
BRANCH   1   2
ATOM      2  N   SER A   1    -134.832  39.052 131.155  0.00  0.00    -0.237 NA
ATOM      3  H   SER A   1    -133.999  38.622 131.606  0.00  0.00    +0.142 HD
ENDBRANCH   1   2
BRANCH   1   4
ATOM      4  CB  SER A   1    -136.999  37.900 131.067  0.00  0.00    +0.227 C 
ATOM      5  OG  SER A   1    -138.075  37.819 130.467  0.00  0.00    -0.287 OA
ENDBRANCH   1   4
BRANCH   1   6
ATOM      6  C   SER A   1    -135.016  36.897 129.891  0.00  0.00    +0.162 C 
BRANCH   6   7
ATOM      7  O   SER A   1    -133.925  37.115 129.010  0.00  0.00    -0.380 OA
ATOM      8  H   SER A   1    -134.250  37.564 128.189  0.00  0.00    +0.211 HD
ENDBRANCH   6   7
ENDBRANCH   1   6
TORSDOF 4
REMARK  Name = ../refined-set-2016/2pqc/2pqc_pocket.pdb
REMARK  243 active torsions:
REMARK  status: ('A' for Active; 'I' for Inactive)
REMARK    1  A    between atoms: _1  and  _3
REMARK    2  A    between atoms: _3  and  _4
REMARK    3  A    between atoms: _3  and  _6
REMARK    4  A    between atoms: _6  and  _7
REMARK    5  A    between atoms: _10  and  _12
REMARK    6  A    between atoms: _12  and  _13
REMARK    7  A    between atoms: _12  and  _15
REMARK    8  A    between atoms: _15  and  _16
REMARK    9  A    between atoms: _16  and  _17
REMARK   10  A    between atoms: _17  and  _18
REMARK   11  A    between atoms: _18  and  _19
REMARK   12  A    between atoms: _23  and  _25
REMARK   13  A    between atoms: _25  and  _26
REMARK   14  A    between atoms: _25  and  _28
REMARK   15  A    between atoms: _28  and  _29
REMARK   16  A    between atoms: _31  and  _33
REMARK   17  A    between atoms: _33  and  _34
REMARK   18  A    between atoms: _33  and  _36
REMARK   19  A    between atoms: _36  and  _37
REMARK   20  A    between atoms: _40  and  _42
REMARK   21  A    between atoms: _42  and  _43
REMARK   22  A    between atoms: _42  and  _45
REMARK   23  A    between atoms: _45  and  _46
REMARK   24  A    between atoms: _48  and  _50
REMARK   25  A    between atoms: _50  and  _51
REMARK   26  A    between atoms: _50  and  _53
REMARK   27  A    between atoms: _53  and  _54
REMARK   28  A    between atoms: _59  and  _61
REMARK   29  A    between atoms: _61  and  _62
REMARK   30  A    between atoms: _61  and  _64
REMARK   31  A    between atoms: _64  and  _65
REMARK   32  A    between atoms: _65  and  _66
REMARK   33  A    between atoms: _66  and  _67
REMARK   34  A    between atoms: _76  and  _78
REMARK   35  A    between atoms: _78  and  _79
REMARK   36  A    between atoms: _78  and  _81
REMARK   37  A    between atoms: _81  and  _82
REMARK   38  A    between atoms: _85  and  _87
REMARK   39  A    between atoms: _87  and  _88
REMARK   40  A    between atoms: _87  and  _90
REMARK   41  A    between atoms: _90  and  _91
REMARK   42  A    between atoms: _96  and  _98
REMARK   43  A    between atoms: _98  and  _99
REMARK   44  A    between atoms: _102  and  _104
REMARK   45  A    between atoms: _104  and  _105
REMARK   46  A    between atoms: _108  and  _110
REMARK   47  A    between atoms: _110  and  _111
REMARK   48  A    between atoms: _110  and  _113
REMARK   49  A    between atoms: _113  and  _114
REMARK   50  A    between atoms: _117  and  _119
REMARK   51  A    between atoms: _119  and  _120
REMARK   52  A    between atoms: _122  and  _124
REMARK   53  A    between atoms: _124  and  _125
REMARK   54  A    between atoms: _124  and  _127
REMARK   55  A    between atoms: _129  and  _131
REMARK   56  A    between atoms: _131  and  _132
REMARK   57  A    between atoms: _131  and  _134
REMARK   58  A    between atoms: _134  and  _135
REMARK   59  A    between atoms: _135  and  _136
REMARK   60  A    between atoms: _136  and  _137
REMARK   61  A    between atoms: _146  and  _148
REMARK   62  A    between atoms: _148  and  _149
REMARK   63  A    between atoms: _148  and  _151
REMARK   64  A    between atoms: _151  and  _152
REMARK   65  A    between atoms: _155  and  _157
REMARK   66  A    between atoms: _157  and  _158
REMARK   67  A    between atoms: _157  and  _160
REMARK   68  A    between atoms: _160  and  _161
REMARK   69  A    between atoms: _163  and  _165
REMARK   70  A    between atoms: _165  and  _166
REMARK   71  A    between atoms: _165  and  _168
REMARK   72  A    between atoms: _168  and  _169
REMARK   73  A    between atoms: _172  and  _174
REMARK   74  A    between atoms: _174  and  _175
REMARK   75  A    between atoms: _174  and  _177
REMARK   76  A    between atoms: _177  and  _178
REMARK   77  A    between atoms: _178  and  _179
REMARK   78  A    between atoms: _179  and  _180
REMARK   79  A    between atoms: _190  and  _191
REMARK   80  A    between atoms: _196  and  _198
REMARK   81  A    between atoms: _198  and  _199
REMARK   82  A    between atoms: _198  and  _201
REMARK   83  A    between atoms: _201  and  _202
REMARK   84  A    between atoms: _202  and  _203
REMARK   85  A    between atoms: _203  and  _204
REMARK   86  A    between atoms: _213  and  _215
REMARK   87  A    between atoms: _215  and  _216
REMARK   88  A    between atoms: _215  and  _218
REMARK   89  A    between atoms: _221  and  _223
REMARK   90  A    between atoms: _223  and  _224
REMARK   91  A    between atoms: _223  and  _226
REMARK   92  A    between atoms: _229  and  _231
REMARK   93  A    between atoms: _231  and  _232
REMARK   94  A    between atoms: _231  and  _234
REMARK   95  A    between atoms: _234  and  _235
REMARK   96  A    between atoms: _235  and  _236
REMARK   97  A    between atoms: _238  and  _240
REMARK   98  A    between atoms: _240  and  _241
REMARK   99  A    between atoms: _244  and  _246
REMARK  100  A    between atoms: _246  and  _247
REMARK  101  A    between atoms: _246  and  _249
REMARK  102  A    between atoms: _249  and  _250
REMARK  103  A    between atoms: _252  and  _254
REMARK  104  A    between atoms: _254  and  _255
REMARK  105  A    between atoms: _258  and  _260
REMARK  106  A    between atoms: _260  and  _261
REMARK  107  A    between atoms: _260  and  _263
REMARK  108  A    between atoms: _263  and  _264
REMARK  109  A    between atoms: _264  and  _265
REMARK  110  A    between atoms: _270  and  _272
REMARK  111  A    between atoms: _272  and  _273
REMARK  112  A    between atoms: _272  and  _275
REMARK  113  A    between atoms: _278  and  _280
REMARK  114  A    between atoms: _280  and  _281
REMARK  115  A    between atoms: _280  and  _283
REMARK  116  A    between atoms: _283  and  _284
REMARK  117  A    between atoms: _284  and  _285
REMARK  118  A    between atoms: _285  and  _286
REMARK  119  A    between atoms: _286  and  _287
REMARK  120  A    between atoms: _291  and  _293
REMARK  121  A    between atoms: _293  and  _294
REMARK  122  A    between atoms: _293  and  _296
REMARK  123  A    between atoms: _296  and  _297
REMARK  124  A    between atoms: _299  and  _301
REMARK  125  A    between atoms: _301  and  _302
REMARK  126  A    between atoms: _305  and  _307
REMARK  127  A    between atoms: _307  and  _308
REMARK  128  A    between atoms: _307  and  _310
REMARK  129  A    between atoms: _310  and  _311
REMARK  130  A    between atoms: _314  and  _316
REMARK  131  A    between atoms: _316  and  _317
REMARK  132  A    between atoms: _316  and  _319
REMARK  133  A    between atoms: _319  and  _320
REMARK  134  A    between atoms: _320  and  _321
REMARK  135  A    between atoms: _321  and  _322
REMARK  136  A    between atoms: _331  and  _333
REMARK  137  A    between atoms: _333  and  _334
REMARK  138  A    between atoms: _333  and  _336
REMARK  139  A    between atoms: _336  and  _337
REMARK  140  A    between atoms: _340  and  _342
REMARK  141  A    between atoms: _342  and  _343
REMARK  142  A    between atoms: _342  and  _345
REMARK  143  A    between atoms: _345  and  _346
REMARK  144  A    between atoms: _351  and  _353
REMARK  145  A    between atoms: _353  and  _354
REMARK  146  A    between atoms: _353  and  _356
REMARK  147  A    between atoms: _356  and  _357
REMARK  148  A    between atoms: _360  and  _362
REMARK  149  A    between atoms: _362  and  _363
REMARK  150  A    between atoms: _362  and  _365
REMARK  151  A    between atoms: _365  and  _366
REMARK  152  A    between atoms: _369  and  _371
REMARK  153  A    between atoms: _371  and  _372
REMARK  154  A    between atoms: _371  and  _374
REMARK  155  A    between atoms: _374  and  _375
REMARK  156  A    between atoms: _377  and  _379
REMARK  157  A    between atoms: _379  and  _380
REMARK  158  A    between atoms: _379  and  _382
REMARK  159  A    between atoms: _382  and  _383
REMARK  160  A    between atoms: _383  and  _384
REMARK  161  A    between atoms: _384  and  _385
REMARK  162  A    between atoms: _394  and  _396
REMARK  163  A    between atoms: _396  and  _397
REMARK  164  A    between atoms: _401  and  _402
REMARK  165  A    between atoms: _407  and  _409
REMARK  166  A    between atoms: _409  and  _410
REMARK  167  A    between atoms: _409  and  _412
REMARK  168  A    between atoms: _412  and  _413
REMARK  169  A    between atoms: _413  and  _414
REMARK  170  A    between atoms: _416  and  _418
REMARK  171  A    between atoms: _418  and  _419
REMARK  172  A    between atoms: _418  and  _421
REMARK  173  A    between atoms: _421  and  _422
REMARK  174  A    between atoms: _425  and  _427
REMARK  175  A    between atoms: _427  and  _428
REMARK  176  A    between atoms: _427  and  _430
REMARK  177  A    between atoms: _430  and  _431
REMARK  178  A    between atoms: _434  and  _436
REMARK  179  A    between atoms: _436  and  _437
REMARK  180  A    between atoms: _436  and  _439
REMARK  181  A    between atoms: _439  and  _440
REMARK  182  A    between atoms: _440  and  _441
REMARK  183  A    between atoms: _445  and  _446
REMARK  184  A    between atoms: _451  and  _453
REMARK  185  A    between atoms: _453  and  _454
REMARK  186  A    between atoms: _453  and  _456
REMARK  187  A    between atoms: _456  and  _457
REMARK  188  A    between atoms: _457  and  _458
REMARK  189  A    between atoms: _461  and  _463
REMARK  190  A    between atoms: _463  and  _464
REMARK  191  A    between atoms: _463  and  _466
REMARK  192  A    between atoms: _466  and  _467
REMARK  193  A    between atoms: _470  and  _472
REMARK  194  A    between atoms: _472  and  _473
REMARK  195  A    between atoms: _472  and  _475
REMARK  196  A    between atoms: _478  and  _480
REMARK  197  A    between atoms: _480  and  _481
REMARK  198  A    between atoms: _480  and  _483
REMARK  199  A    between atoms: _483  and  _484
REMARK  200  A    between atoms: _484  and  _485
REMARK  201  A    between atoms: _485  and  _486
REMARK  202  A    between atoms: _486  and  _487
REMARK  203  A    between atoms: _491  and  _493
REMARK  204  A    between atoms: _493  and  _494
REMARK  205  A    between atoms: _493  and  _496
REMARK  206  A    between atoms: _496  and  _497
REMARK  207  A    between atoms: _497  and  _498
REMARK  208  A    between atoms: _501  and  _503
REMARK  209  A    between atoms: _503  and  _504
REMARK  210  A    between atoms: _503  and  _506
REMARK  211  A    between atoms: _506  and  _507
REMARK  212  A    between atoms: _509  and  _511
REMARK  213  A    between atoms: _511  and  _512
REMARK  214  A    between atoms: _511  and  _514
REMARK  215  A    between atoms: _514  and  _515
REMARK  216  A    between atoms: _515  and  _516
REMARK  217  A    between atoms: _516  and  _517
REMARK  218  A    between atoms: _526  and  _528
REMARK  219  A    between atoms: _528  and  _529
REMARK  220  A    between atoms: _528  and  _531
REMARK  221  A    between atoms: _531  and  _532
REMARK  222  A    between atoms: _535  and  _537
REMARK  223  A    between atoms: _537  and  _538
REMARK  224  A    between atoms: _537  and  _540
REMARK  225  A    between atoms: _540  and  _541
REMARK  226  A    between atoms: _546  and  _548
REMARK  227  A    between atoms: _548  and  _549
REMARK  228  A    between atoms: _548  and  _551
REMARK  229  A    between atoms: _551  and  _552
REMARK  230  A    between atoms: _552  and  _553
REMARK  231  A    between atoms: _553  and  _554
REMARK  232  A    between atoms: _563  and  _565
REMARK  233  A    between atoms: _565  and  _566
REMARK  234  A    between atoms: _565  and  _568
REMARK  235  A    between atoms: _568  and  _569
REMARK  236  A    between atoms: _572  and  _574
REMARK  237  A    between atoms: _574  and  _575
REMARK  238  A    between atoms: _574  and  _577
REMARK  239  A    between atoms: _577  and  _578
REMARK  240  A    between atoms: _581  and  _583
REMARK  241  A    between atoms: _583  and  _584
REMARK  242  A    between atoms: _583  and  _586
REMARK  243  A    between atoms: _586  and  _587
REMARK                            x       y       z     vdW  Elec       q    Type
REMARK                         _______ _______ _______ _____ _____    ______ ____
ROOT
ATOM      1  NE  ARG A   1    -129.698  38.908 129.020  0.00  0.00    -0.265 N 
ATOM      2  CZ  ARG A   1    -129.924  38.214 130.138  0.00  0.00    +0.342 C 
ATOM      3  NH2 ARG A   1    -128.973  38.085 131.055  0.00  0.00    -0.292 N 
ATOM      4 HH21 ARG A   1    -129.158  37.543 131.923  0.00  0.00    +0.255 HD
ATOM      5 HH22 ARG A   1    -128.043  38.526 130.906  0.00  0.00    +0.255 HD
ATOM      6  NH1 ARG A   1    -131.129  37.700 130.362  0.00  0.00    -0.292 N 
ATOM      7 HH11 ARG A   1    -131.310  37.159 131.231  0.00  0.00    +0.255 HD
ATOM      8 HH12 ARG A   1    -131.891  37.839 129.668  0.00  0.00    +0.255 HD
ATOM      9  HE  ARG A   1    -130.466  38.967 128.321  0.00  0.00    +0.259 HD
ENDROOT
BRANCH   1  10
ATOM     10  CD  ARG A   1    -128.440  39.592 128.713  0.00  0.00    +0.174 C 
BRANCH  10  11
ATOM     11  CG  ARG A   1    -128.389  40.978 129.385  0.00  0.00    +0.045 C 
BRANCH  11  12
ATOM     12  CB  ARG A   1    -129.601  41.846 129.001  0.00  0.00    +0.029 C 
BRANCH  12  13
ATOM     13  CA  ARG A   1    -129.722  42.168 127.501  0.00  0.00    +0.133 C 
BRANCH  13  14
ATOM     14  N   ARG A   1    -128.480  42.774 127.028  0.00  0.00    -0.239 NA
ATOM     15  H   ARG A   1    -128.171  43.681 127.432  0.00  0.00    +0.142 HD
ENDBRANCH  13  14
BRANCH  13  16
ATOM     16  C   ARG A   1    -130.942  43.055 127.338  0.00  0.00    +0.224 C 
ATOM     17  O   ARG A   1    -132.047  42.631 127.675  0.00  0.00    -0.287 OA
ENDBRANCH  13  16
ENDBRANCH  12  13
ENDBRANCH  11  12
ENDBRANCH  10  11
ENDBRANCH   1  10
TORSDOF 6
REMARK  Name = ../refined-set-2016/2pqc/2pqc_pocket.pdb
REMARK  243 active torsions:
REMARK  status: ('A' for Active; 'I' for Inactive)
REMARK    1  A    between atoms: _1  and  _3
REMARK    2  A    between atoms: _3  and  _4
REMARK    3  A    between atoms: _3  and  _6
REMARK    4  A    between atoms: _6  and  _7
REMARK    5  A    between atoms: _10  and  _12
REMARK    6  A    between atoms: _12  and  _13
REMARK    7  A    between atoms: _12  and  _15
REMARK    8  A    between atoms: _15  and  _16
REMARK    9  A    between atoms: _16  and  _17
REMARK   10  A    between atoms: _17  and  _18
REMARK   11  A    between atoms: _18  and  _19
REMARK   12  A    between atoms: _23  and  _25
REMARK   13  A    between atoms: _25  and  _26
REMARK   14  A    between atoms: _25  and  _28
REMARK   15  A    between atoms: _28  and  _29
REMARK   16  A    between atoms: _31  and  _33
REMARK   17  A    between atoms: _33  and  _34
REMARK   18  A    between atoms: _33  and  _36
REMARK   19  A    between atoms: _36  and  _37
REMARK   20  A    between atoms: _40  and  _42
REMARK   21  A    between atoms: _42  and  _43
REMARK   22  A    between atoms: _42  and  _45
REMARK   23  A    between atoms: _45  and  _46
REMARK   24  A    between atoms: _48  and  _50
REMARK   25  A    between atoms: _50  and  _51
REMARK   26  A    between atoms: _50  and  _53
REMARK   27  A    between atoms: _53  and  _54
REMARK   28  A    between atoms: _59  and  _61
REMARK   29  A    between atoms: _61  and  _62
REMARK   30  A    between atoms: _61  and  _64
REMARK   31  A    between atoms: _64  and  _65
REMARK   32  A    between atoms: _65  and  _66
REMARK   33  A    between atoms: _66  and  _67
REMARK   34  A    between atoms: _76  and  _78
REMARK   35  A    between atoms: _78  and  _79
REMARK   36  A    between atoms: _78  and  _81
REMARK   37  A    between atoms: _81  and  _82
REMARK   38  A    between atoms: _85  and  _87
REMARK   39  A    between atoms: _87  and  _88
REMARK   40  A    between atoms: _87  and  _90
REMARK   41  A    between atoms: _90  and  _91
REMARK   42  A    between atoms: _96  and  _98
REMARK   43  A    between atoms: _98  and  _99
REMARK   44  A    between atoms: _102  and  _104
REMARK   45  A    between atoms: _104  and  _105
REMARK   46  A    between atoms: _108  and  _110
REMARK   47  A    between atoms: _110  and  _111
REMARK   48  A    between atoms: _110  and  _113
REMARK   49  A    between atoms: _113  and  _114
REMARK   50  A    between atoms: _117  and  _119
REMARK   51  A    between atoms: _119  and  _120
REMARK   52  A    between atoms: _122  and  _124
REMARK   53  A    between atoms: _124  and  _125
REMARK   54  A    between atoms: _124  and  _127
REMARK   55  A    between atoms: _129  and  _131
REMARK   56  A    between atoms: _131  and  _132
REMARK   57  A    between atoms: _131  and  _134
REMARK   58  A    between atoms: _134  and  _135
REMARK   59  A    between atoms: _135  and  _136
REMARK   60  A    between atoms: _136  and  _137
REMARK   61  A    between atoms: _146  and  _148
REMARK   62  A    between atoms: _148  and  _149
REMARK   63  A    between atoms: _148  and  _151
REMARK   64  A    between atoms: _151  and  _152
REMARK   65  A    between atoms: _155  and  _157
REMARK   66  A    between atoms: _157  and  _158
REMARK   67  A    between atoms: _157  and  _160
REMARK   68  A    between atoms: _160  and  _161
REMARK   69  A    between atoms: _163  and  _165
REMARK   70  A    between atoms: _165  and  _166
REMARK   71  A    between atoms: _165  and  _168
REMARK   72  A    between atoms: _168  and  _169
REMARK   73  A    between atoms: _172  and  _174
REMARK   74  A    between atoms: _174  and  _175
REMARK   75  A    between atoms: _174  and  _177
REMARK   76  A    between atoms: _177  and  _178
REMARK   77  A    between atoms: _178  and  _179
REMARK   78  A    between atoms: _179  and  _180
REMARK   79  A    between atoms: _190  and  _191
REMARK   80  A    between atoms: _196  and  _198
REMARK   81  A    between atoms: _198  and  _199
REMARK   82  A    between atoms: _198  and  _201
REMARK   83  A    between atoms: _201  and  _202
REMARK   84  A    between atoms: _202  and  _203
REMARK   85  A    between atoms: _203  and  _204
REMARK   86  A    between atoms: _213  and  _215
REMARK   87  A    between atoms: _215  and  _216
REMARK   88  A    between atoms: _215  and  _218
REMARK   89  A    between atoms: _221  and  _223
REMARK   90  A    between atoms: _223  and  _224
REMARK   91  A    between atoms: _223  and  _226
REMARK   92  A    between atoms: _229  and  _231
REMARK   93  A    between atoms: _231  and  _232
REMARK   94  A    between atoms: _231  and  _234
REMARK   95  A    between atoms: _234  and  _235
REMARK   96  A    between atoms: _235  and  _236
REMARK   97  A    between atoms: _238  and  _240
REMARK   98  A    between atoms: _240  and  _241
REMARK   99  A    between atoms: _244  and  _246
REMARK  100  A    between atoms: _246  and  _247
REMARK  101  A    between atoms: _246  and  _249
REMARK  102  A    between atoms: _249  and  _250
REMARK  103  A    between atoms: _252  and  _254
REMARK  104  A    between atoms: _254  and  _255
REMARK  105  A    between atoms: _258  and  _260
REMARK  106  A    between atoms: _260  and  _261
REMARK  107  A    between atoms: _260  and  _263
REMARK  108  A    between atoms: _263  and  _264
REMARK  109  A    between atoms: _264  and  _265
REMARK  110  A    between atoms: _270  and  _272
REMARK  111  A    between atoms: _272  and  _273
REMARK  112  A    between atoms: _272  and  _275
REMARK  113  A    between atoms: _278  and  _280
REMARK  114  A    between atoms: _280  and  _281
REMARK  115  A    between atoms: _280  and  _283
REMARK  116  A    between atoms: _283  and  _284
REMARK  117  A    between atoms: _284  and  _285
REMARK  118  A    between atoms: _285  and  _286
REMARK  119  A    between atoms: _286  and  _287
REMARK  120  A    between atoms: _291  and  _293
REMARK  121  A    between atoms: _293  and  _294
REMARK  122  A    between atoms: _293  and  _296
REMARK  123  A    between atoms: _296  and  _297
REMARK  124  A    between atoms: _299  and  _301
REMARK  125  A    between atoms: _301  and  _302
REMARK  126  A    between atoms: _305  and  _307
REMARK  127  A    between atoms: _307  and  _308
REMARK  128  A    between atoms: _307  and  _310
REMARK  129  A    between atoms: _310  and  _311
REMARK  130  A    between atoms: _314  and  _316
REMARK  131  A    between atoms: _316  and  _317
REMARK  132  A    between atoms: _316  and  _319
REMARK  133  A    between atoms: _319  and  _320
REMARK  134  A    between atoms: _320  and  _321
REMARK  135  A    between atoms: _321  and  _322
REMARK  136  A    between atoms: _331  and  _333
REMARK  137  A    between atoms: _333  and  _334
REMARK  138  A    between atoms: _333  and  _336
REMARK  139  A    between atoms: _336  and  _337
REMARK  140  A    between atoms: _340  and  _342
REMARK  141  A    between atoms: _342  and  _343
REMARK  142  A    between atoms: _342  and  _345
REMARK  143  A    between atoms: _345  and  _346
REMARK  144  A    between atoms: _351  and  _353
REMARK  145  A    between atoms: _353  and  _354
REMARK  146  A    between atoms: _353  and  _356
REMARK  147  A    between atoms: _356  and  _357
REMARK  148  A    between atoms: _360  and  _362
REMARK  149  A    between atoms: _362  and  _363
REMARK  150  A    between atoms: _362  and  _365
REMARK  151  A    between atoms: _365  and  _366
REMARK  152  A    between atoms: _369  and  _371
REMARK  153  A    between atoms: _371  and  _372
REMARK  154  A    between atoms: _371  and  _374
REMARK  155  A    between atoms: _374  and  _375
REMARK  156  A    between atoms: _377  and  _379
REMARK  157  A    between atoms: _379  and  _380
REMARK  158  A    between atoms: _379  and  _382
REMARK  159  A    between atoms: _382  and  _383
REMARK  160  A    between atoms: _383  and  _384
REMARK  161  A    between atoms: _384  and  _385
REMARK  162  A    between atoms: _394  and  _396
REMARK  163  A    between atoms: _396  and  _397
REMARK  164  A    between atoms: _401  and  _402
REMARK  165  A    between atoms: _407  and  _409
REMARK  166  A    between atoms: _409  and  _410
REMARK  167  A    between atoms: _409  and  _412
REMARK  168  A    between atoms: _412  and  _413
REMARK  169  A    between atoms: _413  and  _414
REMARK  170  A    between atoms: _416  and  _418
REMARK  171  A    between atoms: _418  and  _419
REMARK  172  A    between atoms: _418  and  _421
REMARK  173  A    between atoms: _421  and  _422
REMARK  174  A    between atoms: _425  and  _427
REMARK  175  A    between atoms: _427  and  _428
REMARK  176  A    between atoms: _427  and  _430
REMARK  177  A    between atoms: _430  and  _431
REMARK  178  A    between atoms: _434  and  _436
REMARK  179  A    between atoms: _436  and  _437
REMARK  180  A    between atoms: _436  and  _439
REMARK  181  A    between atoms: _439  and  _440
REMARK  182  A    between atoms: _440  and  _441
REMARK  183  A    between atoms: _445  and  _446
REMARK  184  A    between atoms: _451  and  _453
REMARK  185  A    between atoms: _453  and  _454
REMARK  186  A    between atoms: _453  and  _456
REMARK  187  A    between atoms: _456  and  _457
REMARK  188  A    between atoms: _457  and  _458
REMARK  189  A    between atoms: _461  and  _463
REMARK  190  A    between atoms: _463  and  _464
REMARK  191  A    between atoms: _463  and  _466
REMARK  192  A    between atoms: _466  and  _467
REMARK  193  A    between atoms: _470  and  _472
REMARK  194  A    between atoms: _472  and  _473
REMARK  195  A    between atoms: _472  and  _475
REMARK  196  A    between atoms: _478  and  _480
REMARK  197  A    between atoms: _480  and  _481
REMARK  198  A    between atoms: _480  and  _483
REMARK  199  A    between atoms: _483  and  _484
REMARK  200  A    between atoms: _484  and  _485
REMARK  201  A    between atoms: _485  and  _486
REMARK  202  A    between atoms: _486  and  _487
REMARK  203  A    between atoms: _491  and  _493
REMARK  204  A    between atoms: _493  and  _494
REMARK  205  A    between atoms: _493  and  _496
REMARK  206  A    between atoms: _496  and  _497
REMARK  207  A    between atoms: _497  and  _498
REMARK  208  A    between atoms: _501  and  _503
REMARK  209  A    between atoms: _503  and  _504
REMARK  210  A    between atoms: _503  and  _506
REMARK  211  A    between atoms: _506  and  _507
REMARK  212  A    between atoms: _509  and  _511
REMARK  213  A    between atoms: _511  and  _512
REMARK  214  A    between atoms: _511  and  _514
REMARK  215  A    between atoms: _514  and  _515
REMARK  216  A    between atoms: _515  and  _516
REMARK  217  A    between atoms: _516  and  _517
REMARK  218  A    between atoms: _526  and  _528
REMARK  219  A    between atoms: _528  and  _529
REMARK  220  A    between atoms: _528  and  _531
REMARK  221  A    between atoms: _531  and  _532
REMARK  222  A    between atoms: _535  and  _537
REMARK  223  A    between atoms: _537  and  _538
REMARK  224  A    between atoms: _537  and  _540
REMARK  225  A    between atoms: _540  and  _541
REMARK  226  A    between atoms: _546  and  _548
REMARK  227  A    between atoms: _548  and  _549
REMARK  228  A    between atoms: _548  and  _551
REMARK  229  A    between atoms: _551  and  _552
REMARK  230  A    between atoms: _552  and  _553
REMARK  231  A    between atoms: _553  and  _554
REMARK  232  A    between atoms: _563  and  _565
REMARK  233  A    between atoms: _565  and  _566
REMARK  234  A    between atoms: _565  and  _568
REMARK  235  A    between atoms: _568  and  _569
REMARK  236  A    between atoms: _572  and  _574
REMARK  237  A    between atoms: _574  and  _575
REMARK  238  A    between atoms: _574  and  _577
REMARK  239  A    between atoms: _577  and  _578
REMARK  240  A    between atoms: _581  and  _583
REMARK  241  A    between atoms: _583  and  _584
REMARK  242  A    between atoms: _583  and  _586
REMARK  243  A    between atoms: _586  and  _587
REMARK                            x       y       z     vdW  Elec       q    Type
REMARK                         _______ _______ _______ _____ _____    ______ ____
ROOT
ATOM      1  C   ALA A   1    -130.344  39.549 118.863  0.00  0.00    +0.241 C 
ATOM      2  O   ALA A   1    -130.980  39.110 119.825  0.00  0.00    -0.273 OA
ATOM      3  N   PRO A   2    -128.998  39.538 118.842  0.00  0.00    -0.273 N 
ATOM      4  CA  PRO A   2    -128.276  38.982 119.993  0.00  0.00    +0.140 C 
ATOM      5  CB  PRO A   2    -126.803  39.219 119.644  0.00  0.00    +0.030 C 
ATOM      6  CG  PRO A   2    -126.805  39.258 118.126  0.00  0.00    +0.024 C 
ATOM      7  CD  PRO A   2    -128.071  40.010 117.798  0.00  0.00    +0.094 C 
ENDROOT
BRANCH   1   8
ATOM      8  CA  ALA A   1    -131.099  40.119 117.659  0.00  0.00    +0.145 C 
ATOM      9  CB  ALA A   1    -131.130  39.083 116.522  0.00  0.00    +0.028 C 
BRANCH   8  10
ATOM     10  N   ALA A   1    -130.704  41.425 117.143  0.00  0.00    -0.238 NA
ATOM     11  H   ALA A   1    -130.547  41.555 116.123  0.00  0.00    +0.142 HD
ENDBRANCH   8  10
ENDBRANCH   1   8
BRANCH   4  12
ATOM     12  C   PRO A   2    -128.643  39.611 121.337  0.00  0.00    +0.227 C 
ATOM     13  O   PRO A   2    -128.604  38.945 122.364  0.00  0.00    -0.286 OA
ENDBRANCH   4  12
TORSDOF 3
REMARK  Name = ../refined-set-2016/2pqc/2pqc_pocket.pdb
REMARK  243 active torsions:
REMARK  status: ('A' for Active; 'I' for Inactive)
REMARK    1  A    between atoms: _1  and  _3
REMARK    2  A    between atoms: _3  and  _4
REMARK    3  A    between atoms: _3  and  _6
REMARK    4  A    between atoms: _6  and  _7
REMARK    5  A    between atoms: _10  and  _12
REMARK    6  A    between atoms: _12  and  _13
REMARK    7  A    between atoms: _12  and  _15
REMARK    8  A    between atoms: _15  and  _16
REMARK    9  A    between atoms: _16  and  _17
REMARK   10  A    between atoms: _17  and  _18
REMARK   11  A    between atoms: _18  and  _19
REMARK   12  A    between atoms: _23  and  _25
REMARK   13  A    between atoms: _25  and  _26
REMARK   14  A    between atoms: _25  and  _28
REMARK   15  A    between atoms: _28  and  _29
REMARK   16  A    between atoms: _31  and  _33
REMARK   17  A    between atoms: _33  and  _34
REMARK   18  A    between atoms: _33  and  _36
REMARK   19  A    between atoms: _36  and  _37
REMARK   20  A    between atoms: _40  and  _42
REMARK   21  A    between atoms: _42  and  _43
REMARK   22  A    between atoms: _42  and  _45
REMARK   23  A    between atoms: _45  and  _46
REMARK   24  A    between atoms: _48  and  _50
REMARK   25  A    between atoms: _50  and  _51
REMARK   26  A    between atoms: _50  and  _53
REMARK   27  A    between atoms: _53  and  _54
REMARK   28  A    between atoms: _59  and  _61
REMARK   29  A    between atoms: _61  and  _62
REMARK   30  A    between atoms: _61  and  _64
REMARK   31  A    between atoms: _64  and  _65
REMARK   32  A    between atoms: _65  and  _66
REMARK   33  A    between atoms: _66  and  _67
REMARK   34  A    between atoms: _76  and  _78
REMARK   35  A    between atoms: _78  and  _79
REMARK   36  A    between atoms: _78  and  _81
REMARK   37  A    between atoms: _81  and  _82
REMARK   38  A    between atoms: _85  and  _87
REMARK   39  A    between atoms: _87  and  _88
REMARK   40  A    between atoms: _87  and  _90
REMARK   41  A    between atoms: _90  and  _91
REMARK   42  A    between atoms: _96  and  _98
REMARK   43  A    between atoms: _98  and  _99
REMARK   44  A    between atoms: _102  and  _104
REMARK   45  A    between atoms: _104  and  _105
REMARK   46  A    between atoms: _108  and  _110
REMARK   47  A    between atoms: _110  and  _111
REMARK   48  A    between atoms: _110  and  _113
REMARK   49  A    between atoms: _113  and  _114
REMARK   50  A    between atoms: _117  and  _119
REMARK   51  A    between atoms: _119  and  _120
REMARK   52  A    between atoms: _122  and  _124
REMARK   53  A    between atoms: _124  and  _125
REMARK   54  A    between atoms: _124  and  _127
REMARK   55  A    between atoms: _129  and  _131
REMARK   56  A    between atoms: _131  and  _132
REMARK   57  A    between atoms: _131  and  _134
REMARK   58  A    between atoms: _134  and  _135
REMARK   59  A    between atoms: _135  and  _136
REMARK   60  A    between atoms: _136  and  _137
REMARK   61  A    between atoms: _146  and  _148
REMARK   62  A    between atoms: _148  and  _149
REMARK   63  A    between atoms: _148  and  _151
REMARK   64  A    between atoms: _151  and  _152
REMARK   65  A    between atoms: _155  and  _157
REMARK   66  A    between atoms: _157  and  _158
REMARK   67  A    between atoms: _157  and  _160
REMARK   68  A    between atoms: _160  and  _161
REMARK   69  A    between atoms: _163  and  _165
REMARK   70  A    between atoms: _165  and  _166
REMARK   71  A    between atoms: _165  and  _168
REMARK   72  A    between atoms: _168  and  _169
REMARK   73  A    between atoms: _172  and  _174
REMARK   74  A    between atoms: _174  and  _175
REMARK   75  A    between atoms: _174  and  _177
REMARK   76  A    between atoms: _177  and  _178
REMARK   77  A    between atoms: _178  and  _179
REMARK   78  A    between atoms: _179  and  _180
REMARK   79  A    between atoms: _190  and  _191
REMARK   80  A    between atoms: _196  and  _198
REMARK   81  A    between atoms: _198  and  _199
REMARK   82  A    between atoms: _198  and  _201
REMARK   83  A    between atoms: _201  and  _202
REMARK   84  A    between atoms: _202  and  _203
REMARK   85  A    between atoms: _203  and  _204
REMARK   86  A    between atoms: _213  and  _215
REMARK   87  A    between atoms: _215  and  _216
REMARK   88  A    between atoms: _215  and  _218
REMARK   89  A    between atoms: _221  and  _223
REMARK   90  A    between atoms: _223  and  _224
REMARK   91  A    between atoms: _223  and  _226
REMARK   92  A    between atoms: _229  and  _231
REMARK   93  A    between atoms: _231  and  _232
REMARK   94  A    between atoms: _231  and  _234
REMARK   95  A    between atoms: _234  and  _235
REMARK   96  A    between atoms: _235  and  _236
REMARK   97  A    between atoms: _238  and  _240
REMARK   98  A    between atoms: _240  and  _241
REMARK   99  A    between atoms: _244  and  _246
REMARK  100  A    between atoms: _246  and  _247
REMARK  101  A    between atoms: _246  and  _249
REMARK  102  A    between atoms: _249  and  _250
REMARK  103  A    between atoms: _252  and  _254
REMARK  104  A    between atoms: _254  and  _255
REMARK  105  A    between atoms: _258  and  _260
REMARK  106  A    between atoms: _260  and  _261
REMARK  107  A    between atoms: _260  and  _263
REMARK  108  A    between atoms: _263  and  _264
REMARK  109  A    between atoms: _264  and  _265
REMARK  110  A    between atoms: _270  and  _272
REMARK  111  A    between atoms: _272  and  _273
REMARK  112  A    between atoms: _272  and  _275
REMARK  113  A    between atoms: _278  and  _280
REMARK  114  A    between atoms: _280  and  _281
REMARK  115  A    between atoms: _280  and  _283
REMARK  116  A    between atoms: _283  and  _284
REMARK  117  A    between atoms: _284  and  _285
REMARK  118  A    between atoms: _285  and  _286
REMARK  119  A    between atoms: _286  and  _287
REMARK  120  A    between atoms: _291  and  _293
REMARK  121  A    between atoms: _293  and  _294
REMARK  122  A    between atoms: _293  and  _296
REMARK  123  A    between atoms: _296  and  _297
REMARK  124  A    between atoms: _299  and  _301
REMARK  125  A    between atoms: _301  and  _302
REMARK  126  A    between atoms: _305  and  _307
REMARK  127  A    between atoms: _307  and  _308
REMARK  128  A    between atoms: _307  and  _310
REMARK  129  A    between atoms: _310  and  _311
REMARK  130  A    between atoms: _314  and  _316
REMARK  131  A    between atoms: _316  and  _317
REMARK  132  A    between atoms: _316  and  _319
REMARK  133  A    between atoms: _319  and  _320
REMARK  134  A    between atoms: _320  and  _321
REMARK  135  A    between atoms: _321  and  _322
REMARK  136  A    between atoms: _331  and  _333
REMARK  137  A    between atoms: _333  and  _334
REMARK  138  A    between atoms: _333  and  _336
REMARK  139  A    between atoms: _336  and  _337
REMARK  140  A    between atoms: _340  and  _342
REMARK  141  A    between atoms: _342  and  _343
REMARK  142  A    between atoms: _342  and  _345
REMARK  143  A    between atoms: _345  and  _346
REMARK  144  A    between atoms: _351  and  _353
REMARK  145  A    between atoms: _353  and  _354
REMARK  146  A    between atoms: _353  and  _356
REMARK  147  A    between atoms: _356  and  _357
REMARK  148  A    between atoms: _360  and  _362
REMARK  149  A    between atoms: _362  and  _363
REMARK  150  A    between atoms: _362  and  _365
REMARK  151  A    between atoms: _365  and  _366
REMARK  152  A    between atoms: _369  and  _371
REMARK  153  A    between atoms: _371  and  _372
REMARK  154  A    between atoms: _371  and  _374
REMARK  155  A    between atoms: _374  and  _375
REMARK  156  A    between atoms: _377  and  _379
REMARK  157  A    between atoms: _379  and  _380
REMARK  158  A    between atoms: _379  and  _382
REMARK  159  A    between atoms: _382  and  _383
REMARK  160  A    between atoms: _383  and  _384
REMARK  161  A    between atoms: _384  and  _385
REMARK  162  A    between atoms: _394  and  _396
REMARK  163  A    between atoms: _396  and  _397
REMARK  164  A    between atoms: _401  and  _402
REMARK  165  A    between atoms: _407  and  _409
REMARK  166  A    between atoms: _409  and  _410
REMARK  167  A    between atoms: _409  and  _412
REMARK  168  A    between atoms: _412  and  _413
REMARK  169  A    between atoms: _413  and  _414
REMARK  170  A    between atoms: _416  and  _418
REMARK  171  A    between atoms: _418  and  _419
REMARK  172  A    between atoms: _418  and  _421
REMARK  173  A    between atoms: _421  and  _422
REMARK  174  A    between atoms: _425  and  _427
REMARK  175  A    between atoms: _427  and  _428
REMARK  176  A    between atoms: _427  and  _430
REMARK  177  A    between atoms: _430  and  _431
REMARK  178  A    between atoms: _434  and  _436
REMARK  179  A    between atoms: _436  and  _437
REMARK  180  A    between atoms: _436  and  _439
REMARK  181  A    between atoms: _439  and  _440
REMARK  182  A    between atoms: _440  and  _441
REMARK  183  A    between atoms: _445  and  _446
REMARK  184  A    between atoms: _451  and  _453
REMARK  185  A    between atoms: _453  and  _454
REMARK  186  A    between atoms: _453  and  _456
REMARK  187  A    between atoms: _456  and  _457
REMARK  188  A    between atoms: _457  and  _458
REMARK  189  A    between atoms: _461  and  _463
REMARK  190  A    between atoms: _463  and  _464
REMARK  191  A    between atoms: _463  and  _466
REMARK  192  A    between atoms: _466  and  _467
REMARK  193  A    between atoms: _470  and  _472
REMARK  194  A    between atoms: _472  and  _473
REMARK  195  A    between atoms: _472  and  _475
REMARK  196  A    between atoms: _478  and  _480
REMARK  197  A    between atoms: _480  and  _481
REMARK  198  A    between atoms: _480  and  _483
REMARK  199  A    between atoms: _483  and  _484
REMARK  200  A    between atoms: _484  and  _485
REMARK  201  A    between atoms: _485  and  _486
REMARK  202  A    between atoms: _486  and  _487
REMARK  203  A    between atoms: _491  and  _493
REMARK  204  A    between atoms: _493  and  _494
REMARK  205  A    between atoms: _493  and  _496
REMARK  206  A    between atoms: _496  and  _497
REMARK  207  A    between atoms: _497  and  _498
REMARK  208  A    between atoms: _501  and  _503
REMARK  209  A    between atoms: _503  and  _504
REMARK  210  A    between atoms: _503  and  _506
REMARK  211  A    between atoms: _506  and  _507
REMARK  212  A    between atoms: _509  and  _511
REMARK  213  A    between atoms: _511  and  _512
REMARK  214  A    between atoms: _511  and  _514
REMARK  215  A    between atoms: _514  and  _515
REMARK  216  A    between atoms: _515  and  _516
REMARK  217  A    between atoms: _516  and  _517
REMARK  218  A    between atoms: _526  and  _528
REMARK  219  A    between atoms: _528  and  _529
REMARK  220  A    between atoms: _528  and  _531
REMARK  221  A    between atoms: _531  and  _532
REMARK  222  A    between atoms: _535  and  _537
REMARK  223  A    between atoms: _537  and  _538
REMARK  224  A    between atoms: _537  and  _540
REMARK  225  A    between atoms: _540  and  _541
REMARK  226  A    between atoms: _546  and  _548
REMARK  227  A    between atoms: _548  and  _549
REMARK  228  A    between atoms: _548  and  _551
REMARK  229  A    between atoms: _551  and  _552
REMARK  230  A    between atoms: _552  and  _553
REMARK  231  A    between atoms: _553  and  _554
REMARK  232  A    between atoms: _563  and  _565
REMARK  233  A    between atoms: _565  and  _566
REMARK  234  A    between atoms: _565  and  _568
REMARK  235  A    between atoms: _568  and  _569
REMARK  236  A    between atoms: _572  and  _574
REMARK  237  A    between atoms: _574  and  _575
REMARK  238  A    between atoms: _574  and  _577
REMARK  239  A    between atoms: _577  and  _578
REMARK  240  A    between atoms: _581  and  _583
REMARK  241  A    between atoms: _583  and  _584
REMARK  242  A    between atoms: _583  and  _586
REMARK  243  A    between atoms: _586  and  _587
REMARK                            x       y       z     vdW  Elec       q    Type
REMARK                         _______ _______ _______ _____ _____    ______ ____
ROOT
ATOM      1  C   ILE A   2    -133.933  35.993 122.023  0.00  0.00    +0.241 C 
ATOM      2  N   ASP A   3    -133.899  36.014 123.348  0.00  0.00    -0.297 N 
ATOM      3  H   ASP A   3    -133.159  36.552 123.842  0.00  0.00    +0.150 HD
ATOM      4  O   ILE A   2    -134.830  35.422 121.405  0.00  0.00    -0.273 OA
ENDROOT
BRANCH   2   5
ATOM      5  CA  ASP A   3    -134.900  35.282 124.110  0.00  0.00    +0.160 C 
BRANCH   5   6
ATOM      6  C   ASP A   3    -136.199  36.050 124.295  0.00  0.00    +0.241 C 
ATOM      7  O   ASP A   3    -137.175  35.490 124.783  0.00  0.00    -0.273 OA
ATOM      8  N   GLU A   4    -136.221  37.307 123.872  0.00  0.00    -0.298 N 
ATOM      9  H   GLU A   4    -135.368  37.724 123.448  0.00  0.00    +0.150 HD
BRANCH   8  10
ATOM     10  CA  GLU A   4    -137.432  38.108 123.997  0.00  0.00    +0.137 C 
BRANCH  10  11
ATOM     11  C   GLU A   4    -138.265  38.204 122.726  0.00  0.00    +0.227 C 
ATOM     12  O   GLU A   4    -139.232  38.944 122.699  0.00  0.00    -0.286 OA
ENDBRANCH  10  11
BRANCH  10  13
ATOM     13  CB  GLU A   4    -137.098  39.517 124.508  0.00  0.00    +0.039 C 
BRANCH  13  14
ATOM     14  CG  GLU A   4    -136.820  39.569 126.002  0.00  0.00    +0.116 C 
BRANCH  14  15
ATOM     15  CD  GLU A   4    -135.509  38.878 126.386  0.00  0.00    +0.365 C 
ATOM     16  OE2 GLU A   4    -135.549  37.774 126.995  0.00  0.00    -0.246 OA
ATOM     17  OE1 GLU A   4    -134.431  39.452 126.096  0.00  0.00    -0.246 OA
ENDBRANCH  14  15
ENDBRANCH  13  14
ENDBRANCH  10  13
ENDBRANCH   8  10
ENDBRANCH   5   6
BRANCH   5  18
ATOM     18  CB  ASP A   3    -134.334  34.877 125.476  0.00  0.00    +0.143 C 
BRANCH  18  19
ATOM     19  CG  ASP A   3    -133.117  33.981 125.342  0.00  0.00    +0.367 C 
ATOM     20  OD2 ASP A   3    -132.170  34.138 126.147  0.00  0.00    -0.246 OA
ATOM     21  OD1 ASP A   3    -133.111  33.123 124.422  0.00  0.00    -0.246 OA
ENDBRANCH  18  19
ENDBRANCH   5  18
ENDBRANCH   2   5
BRANCH   1  22
ATOM     22  CA  ILE A   2    -132.861  36.778 121.270  0.00  0.00    +0.148 C 
BRANCH  22  25
ATOM     23  C   MET A   1    -133.384  38.967 122.172  0.00  0.00    +0.238 C 
ATOM     24  O   MET A   1    -134.590  38.784 122.006  0.00  0.00    -0.274 OA
ATOM     25  N   ILE A   2    -132.462  38.045 121.892  0.00  0.00    -0.297 N 
ATOM     26  H   ILE A   2    -131.462  38.224 122.114  0.00  0.00    +0.150 HD
BRANCH  23  27
ATOM     27  CA  MET A   1    -132.893  40.290 122.735  0.00  0.00    +0.146 C 
BRANCH  27  28
ATOM     28  N   MET A   1    -131.522  40.559 122.334  0.00  0.00    -0.238 NA
ATOM     29  H   MET A   1    -131.133  40.101 121.485  0.00  0.00    +0.142 HD
ENDBRANCH  27  28
BRANCH  27  30
ATOM     30  CB  MET A   1    -133.787  41.402 122.195  0.00  0.00    +0.038 C 
BRANCH  30  31
ATOM     31  CG  MET A   1    -133.662  41.559 120.662  0.00  0.00    +0.060 C 
BRANCH  31  32
ATOM     32  SD  MET A   1    -134.564  43.003 120.012  0.00  0.00    -0.139 S 
ATOM     33  CE  MET A   1    -136.057  42.567 120.448  0.00  0.00    +0.069 C 
ENDBRANCH  31  32
ENDBRANCH  30  31
ENDBRANCH  27  30
ENDBRANCH  23  27
ENDBRANCH  22  25
BRANCH  22  34
ATOM     34  CB  ILE A   2    -131.596  35.894 120.968  0.00  0.00    +0.027 C 
ATOM     35  CG2 ILE A   2    -131.020  35.312 122.266  0.00  0.00    +0.002 C 
BRANCH  34  36
ATOM     36  CG1 ILE A   2    -131.958  34.760 119.992  0.00  0.00    +0.002 C 
ATOM     37  CD1 ILE A   2    -132.314  35.256 118.586  0.00  0.00    +0.000 C 
ENDBRANCH  34  36
ENDBRANCH  22  34
ENDBRANCH   1  22
TORSDOF 18
REMARK  Name = ../refined-set-2016/2pqc/2pqc_pocket.pdb
REMARK  243 active torsions:
REMARK  status: ('A' for Active; 'I' for Inactive)
REMARK    1  A    between atoms: _1  and  _3
REMARK    2  A    between atoms: _3  and  _4
REMARK    3  A    between atoms: _3  and  _6
REMARK    4  A    between atoms: _6  and  _7
REMARK    5  A    between atoms: _10  and  _12
REMARK    6  A    between atoms: _12  and  _13
REMARK    7  A    between atoms: _12  and  _15
REMARK    8  A    between atoms: _15  and  _16
REMARK    9  A    between atoms: _16  and  _17
REMARK   10  A    between atoms: _17  and  _18
REMARK   11  A    between atoms: _18  and  _19
REMARK   12  A    between atoms: _23  and  _25
REMARK   13  A    between atoms: _25  and  _26
REMARK   14  A    between atoms: _25  and  _28
REMARK   15  A    between atoms: _28  and  _29
REMARK   16  A    between atoms: _31  and  _33
REMARK   17  A    between atoms: _33  and  _34
REMARK   18  A    between atoms: _33  and  _36
REMARK   19  A    between atoms: _36  and  _37
REMARK   20  A    between atoms: _40  and  _42
REMARK   21  A    between atoms: _42  and  _43
REMARK   22  A    between atoms: _42  and  _45
REMARK   23  A    between atoms: _45  and  _46
REMARK   24  A    between atoms: _48  and  _50
REMARK   25  A    between atoms: _50  and  _51
REMARK   26  A    between atoms: _50  and  _53
REMARK   27  A    between atoms: _53  and  _54
REMARK   28  A    between atoms: _59  and  _61
REMARK   29  A    between atoms: _61  and  _62
REMARK   30  A    between atoms: _61  and  _64
REMARK   31  A    between atoms: _64  and  _65
REMARK   32  A    between atoms: _65  and  _66
REMARK   33  A    between atoms: _66  and  _67
REMARK   34  A    between atoms: _76  and  _78
REMARK   35  A    between atoms: _78  and  _79
REMARK   36  A    between atoms: _78  and  _81
REMARK   37  A    between atoms: _81  and  _82
REMARK   38  A    between atoms: _85  and  _87
REMARK   39  A    between atoms: _87  and  _88
REMARK   40  A    between atoms: _87  and  _90
REMARK   41  A    between atoms: _90  and  _91
REMARK   42  A    between atoms: _96  and  _98
REMARK   43  A    between atoms: _98  and  _99
REMARK   44  A    between atoms: _102  and  _104
REMARK   45  A    between atoms: _104  and  _105
REMARK   46  A    between atoms: _108  and  _110
REMARK   47  A    between atoms: _110  and  _111
REMARK   48  A    between atoms: _110  and  _113
REMARK   49  A    between atoms: _113  and  _114
REMARK   50  A    between atoms: _117  and  _119
REMARK   51  A    between atoms: _119  and  _120
REMARK   52  A    between atoms: _122  and  _124
REMARK   53  A    between atoms: _124  and  _125
REMARK   54  A    between atoms: _124  and  _127
REMARK   55  A    between atoms: _129  and  _131
REMARK   56  A    between atoms: _131  and  _132
REMARK   57  A    between atoms: _131  and  _134
REMARK   58  A    between atoms: _134  and  _135
REMARK   59  A    between atoms: _135  and  _136
REMARK   60  A    between atoms: _136  and  _137
REMARK   61  A    between atoms: _146  and  _148
REMARK   62  A    between atoms: _148  and  _149
REMARK   63  A    between atoms: _148  and  _151
REMARK   64  A    between atoms: _151  and  _152
REMARK   65  A    between atoms: _155  and  _157
REMARK   66  A    between atoms: _157  and  _158
REMARK   67  A    between atoms: _157  and  _160
REMARK   68  A    between atoms: _160  and  _161
REMARK   69  A    between atoms: _163  and  _165
REMARK   70  A    between atoms: _165  and  _166
REMARK   71  A    between atoms: _165  and  _168
REMARK   72  A    between atoms: _168  and  _169
REMARK   73  A    between atoms: _172  and  _174
REMARK   74  A    between atoms: _174  and  _175
REMARK   75  A    between atoms: _174  and  _177
REMARK   76  A    between atoms: _177  and  _178
REMARK   77  A    between atoms: _178  and  _179
REMARK   78  A    between atoms: _179  and  _180
REMARK   79  A    between atoms: _190  and  _191
REMARK   80  A    between atoms: _196  and  _198
REMARK   81  A    between atoms: _198  and  _199
REMARK   82  A    between atoms: _198  and  _201
REMARK   83  A    between atoms: _201  and  _202
REMARK   84  A    between atoms: _202  and  _203
REMARK   85  A    between atoms: _203  and  _204
REMARK   86  A    between atoms: _213  and  _215
REMARK   87  A    between atoms: _215  and  _216
REMARK   88  A    between atoms: _215  and  _218
REMARK   89  A    between atoms: _221  and  _223
REMARK   90  A    between atoms: _223  and  _224
REMARK   91  A    between atoms: _223  and  _226
REMARK   92  A    between atoms: _229  and  _231
REMARK   93  A    between atoms: _231  and  _232
REMARK   94  A    between atoms: _231  and  _234
REMARK   95  A    between atoms: _234  and  _235
REMARK   96  A    between atoms: _235  and  _236
REMARK   97  A    between atoms: _238  and  _240
REMARK   98  A    between atoms: _240  and  _241
REMARK   99  A    between atoms: _244  and  _246
REMARK  100  A    between atoms: _246  and  _247
REMARK  101  A    between atoms: _246  and  _249
REMARK  102  A    between atoms: _249  and  _250
REMARK  103  A    between atoms: _252  and  _254
REMARK  104  A    between atoms: _254  and  _255
REMARK  105  A    between atoms: _258  and  _260
REMARK  106  A    between atoms: _260  and  _261
REMARK  107  A    between atoms: _260  and  _263
REMARK  108  A    between atoms: _263  and  _264
REMARK  109  A    between atoms: _264  and  _265
REMARK  110  A    between atoms: _270  and  _272
REMARK  111  A    between atoms: _272  and  _273
REMARK  112  A    between atoms: _272  and  _275
REMARK  113  A    between atoms: _278  and  _280
REMARK  114  A    between atoms: _280  and  _281
REMARK  115  A    between atoms: _280  and  _283
REMARK  116  A    between atoms: _283  and  _284
REMARK  117  A    between atoms: _284  and  _285
REMARK  118  A    between atoms: _285  and  _286
REMARK  119  A    between atoms: _286  and  _287
REMARK  120  A    between atoms: _291  and  _293
REMARK  121  A    between atoms: _293  and  _294
REMARK  122  A    between atoms: _293  and  _296
REMARK  123  A    between atoms: _296  and  _297
REMARK  124  A    between atoms: _299  and  _301
REMARK  125  A    between atoms: _301  and  _302
REMARK  126  A    between atoms: _305  and  _307
REMARK  127  A    between atoms: _307  and  _308
REMARK  128  A    between atoms: _307  and  _310
REMARK  129  A    between atoms: _310  and  _311
REMARK  130  A    between atoms: _314  and  _316
REMARK  131  A    between atoms: _316  and  _317
REMARK  132  A    between atoms: _316  and  _319
REMARK  133  A    between atoms: _319  and  _320
REMARK  134  A    between atoms: _320  and  _321
REMARK  135  A    between atoms: _321  and  _322
REMARK  136  A    between atoms: _331  and  _333
REMARK  137  A    between atoms: _333  and  _334
REMARK  138  A    between atoms: _333  and  _336
REMARK  139  A    between atoms: _336  and  _337
REMARK  140  A    between atoms: _340  and  _342
REMARK  141  A    between atoms: _342  and  _343
REMARK  142  A    between atoms: _342  and  _345
REMARK  143  A    between atoms: _345  and  _346
REMARK  144  A    between atoms: _351  and  _353
REMARK  145  A    between atoms: _353  and  _354
REMARK  146  A    between atoms: _353  and  _356
REMARK  147  A    between atoms: _356  and  _357
REMARK  148  A    between atoms: _360  and  _362
REMARK  149  A    between atoms: _362  and  _363
REMARK  150  A    between atoms: _362  and  _365
REMARK  151  A    between atoms: _365  and  _366
REMARK  152  A    between atoms: _369  and  _371
REMARK  153  A    between atoms: _371  and  _372
REMARK  154  A    between atoms: _371  and  _374
REMARK  155  A    between atoms: _374  and  _375
REMARK  156  A    between atoms: _377  and  _379
REMARK  157  A    between atoms: _379  and  _380
REMARK  158  A    between atoms: _379  and  _382
REMARK  159  A    between atoms: _382  and  _383
REMARK  160  A    between atoms: _383  and  _384
REMARK  161  A    between atoms: _384  and  _385
REMARK  162  A    between atoms: _394  and  _396
REMARK  163  A    between atoms: _396  and  _397
REMARK  164  A    between atoms: _401  and  _402
REMARK  165  A    between atoms: _407  and  _409
REMARK  166  A    between atoms: _409  and  _410
REMARK  167  A    between atoms: _409  and  _412
REMARK  168  A    between atoms: _412  and  _413
REMARK  169  A    between atoms: _413  and  _414
REMARK  170  A    between atoms: _416  and  _418
REMARK  171  A    between atoms: _418  and  _419
REMARK  172  A    between atoms: _418  and  _421
REMARK  173  A    between atoms: _421  and  _422
REMARK  174  A    between atoms: _425  and  _427
REMARK  175  A    between atoms: _427  and  _428
REMARK  176  A    between atoms: _427  and  _430
REMARK  177  A    between atoms: _430  and  _431
REMARK  178  A    between atoms: _434  and  _436
REMARK  179  A    between atoms: _436  and  _437
REMARK  180  A    between atoms: _436  and  _439
REMARK  181  A    between atoms: _439  and  _440
REMARK  182  A    between atoms: _440  and  _441
REMARK  183  A    between atoms: _445  and  _446
REMARK  184  A    between atoms: _451  and  _453
REMARK  185  A    between atoms: _453  and  _454
REMARK  186  A    between atoms: _453  and  _456
REMARK  187  A    between atoms: _456  and  _457
REMARK  188  A    between atoms: _457  and  _458
REMARK  189  A    between atoms: _461  and  _463
REMARK  190  A    between atoms: _463  and  _464
REMARK  191  A    between atoms: _463  and  _466
REMARK  192  A    between atoms: _466  and  _467
REMARK  193  A    between atoms: _470  and  _472
REMARK  194  A    between atoms: _472  and  _473
REMARK  195  A    between atoms: _472  and  _475
REMARK  196  A    between atoms: _478  and  _480
REMARK  197  A    between atoms: _480  and  _481
REMARK  198  A    between atoms: _480  and  _483
REMARK  199  A    between atoms: _483  and  _484
REMARK  200  A    between atoms: _484  and  _485
REMARK  201  A    between atoms: _485  and  _486
REMARK  202  A    between atoms: _486  and  _487
REMARK  203  A    between atoms: _491  and  _493
REMARK  204  A    between atoms: _493  and  _494
REMARK  205  A    between atoms: _493  and  _496
REMARK  206  A    between atoms: _496  and  _497
REMARK  207  A    between atoms: _497  and  _498
REMARK  208  A    between atoms: _501  and  _503
REMARK  209  A    between atoms: _503  and  _504
REMARK  210  A    between atoms: _503  and  _506
REMARK  211  A    between atoms: _506  and  _507
REMARK  212  A    between atoms: _509  and  _511
REMARK  213  A    between atoms: _511  and  _512
REMARK  214  A    between atoms: _511  and  _514
REMARK  215  A    between atoms: _514  and  _515
REMARK  216  A    between atoms: _515  and  _516
REMARK  217  A    between atoms: _516  and  _517
REMARK  218  A    between atoms: _526  and  _528
REMARK  219  A    between atoms: _528  and  _529
REMARK  220  A    between atoms: _528  and  _531
REMARK  221  A    between atoms: _531  and  _532
REMARK  222  A    between atoms: _535  and  _537
REMARK  223  A    between atoms: _537  and  _538
REMARK  224  A    between atoms: _537  and  _540
REMARK  225  A    between atoms: _540  and  _541
REMARK  226  A    between atoms: _546  and  _548
REMARK  227  A    between atoms: _548  and  _549
REMARK  228  A    between atoms: _548  and  _551
REMARK  229  A    between atoms: _551  and  _552
REMARK  230  A    between atoms: _552  and  _553
REMARK  231  A    between atoms: _553  and  _554
REMARK  232  A    between atoms: _563  and  _565
REMARK  233  A    between atoms: _565  and  _566
REMARK  234  A    between atoms: _565  and  _568
REMARK  235  A    between atoms: _568  and  _569
REMARK  236  A    between atoms: _572  and  _574
REMARK  237  A    between atoms: _574  and  _575
REMARK  238  A    between atoms: _574  and  _577
REMARK  239  A    between atoms: _577  and  _578
REMARK  240  A    between atoms: _581  and  _583
REMARK  241  A    between atoms: _583  and  _584
REMARK  242  A    between atoms: _583  and  _586
REMARK  243  A    between atoms: _586  and  _587
REMARK                            x       y       z     vdW  Elec       q    Type
REMARK                         _______ _______ _______ _____ _____    ______ ____
ROOT
ATOM      1  N   PRO A   1    -140.343  35.959 121.514  0.00  0.00    -0.212 NA
ATOM      2  CD  PRO A   1    -139.359  34.976 122.020  0.00  0.00    +0.089 C 
ATOM      3  CG  PRO A   1    -140.195  33.723 122.208  0.00  0.00    +0.021 C 
ATOM      4  CB  PRO A   1    -141.538  34.300 122.662  0.00  0.00    +0.027 C 
ATOM      5  CA  PRO A   1    -141.718  35.488 121.724  0.00  0.00    +0.137 C 
ENDROOT
BRANCH   5   6
ATOM      6  C   PRO A   1    -142.621  36.563 122.364  0.00  0.00    +0.224 C 
ATOM      7  O   PRO A   1    -143.731  36.802 121.891  0.00  0.00    -0.287 OA
ENDBRANCH   5   6
TORSDOF 1
REMARK  Name = ../refined-set-2016/2pqc/2pqc_pocket.pdb
REMARK  243 active torsions:
REMARK  status: ('A' for Active; 'I' for Inactive)
REMARK    1  A    between atoms: _1  and  _3
REMARK    2  A    between atoms: _3  and  _4
REMARK    3  A    between atoms: _3  and  _6
REMARK    4  A    between atoms: _6  and  _7
REMARK    5  A    between atoms: _10  and  _12
REMARK    6  A    between atoms: _12  and  _13
REMARK    7  A    between atoms: _12  and  _15
REMARK    8  A    between atoms: _15  and  _16
REMARK    9  A    between atoms: _16  and  _17
REMARK   10  A    between atoms: _17  and  _18
REMARK   11  A    between atoms: _18  and  _19
REMARK   12  A    between atoms: _23  and  _25
REMARK   13  A    between atoms: _25  and  _26
REMARK   14  A    between atoms: _25  and  _28
REMARK   15  A    between atoms: _28  and  _29
REMARK   16  A    between atoms: _31  and  _33
REMARK   17  A    between atoms: _33  and  _34
REMARK   18  A    between atoms: _33  and  _36
REMARK   19  A    between atoms: _36  and  _37
REMARK   20  A    between atoms: _40  and  _42
REMARK   21  A    between atoms: _42  and  _43
REMARK   22  A    between atoms: _42  and  _45
REMARK   23  A    between atoms: _45  and  _46
REMARK   24  A    between atoms: _48  and  _50
REMARK   25  A    between atoms: _50  and  _51
REMARK   26  A    between atoms: _50  and  _53
REMARK   27  A    between atoms: _53  and  _54
REMARK   28  A    between atoms: _59  and  _61
REMARK   29  A    between atoms: _61  and  _62
REMARK   30  A    between atoms: _61  and  _64
REMARK   31  A    between atoms: _64  and  _65
REMARK   32  A    between atoms: _65  and  _66
REMARK   33  A    between atoms: _66  and  _67
REMARK   34  A    between atoms: _76  and  _78
REMARK   35  A    between atoms: _78  and  _79
REMARK   36  A    between atoms: _78  and  _81
REMARK   37  A    between atoms: _81  and  _82
REMARK   38  A    between atoms: _85  and  _87
REMARK   39  A    between atoms: _87  and  _88
REMARK   40  A    between atoms: _87  and  _90
REMARK   41  A    between atoms: _90  and  _91
REMARK   42  A    between atoms: _96  and  _98
REMARK   43  A    between atoms: _98  and  _99
REMARK   44  A    between atoms: _102  and  _104
REMARK   45  A    between atoms: _104  and  _105
REMARK   46  A    between atoms: _108  and  _110
REMARK   47  A    between atoms: _110  and  _111
REMARK   48  A    between atoms: _110  and  _113
REMARK   49  A    between atoms: _113  and  _114
REMARK   50  A    between atoms: _117  and  _119
REMARK   51  A    between atoms: _119  and  _120
REMARK   52  A    between atoms: _122  and  _124
REMARK   53  A    between atoms: _124  and  _125
REMARK   54  A    between atoms: _124  and  _127
REMARK   55  A    between atoms: _129  and  _131
REMARK   56  A    between atoms: _131  and  _132
REMARK   57  A    between atoms: _131  and  _134
REMARK   58  A    between atoms: _134  and  _135
REMARK   59  A    between atoms: _135  and  _136
REMARK   60  A    between atoms: _136  and  _137
REMARK   61  A    between atoms: _146  and  _148
REMARK   62  A    between atoms: _148  and  _149
REMARK   63  A    between atoms: _148  and  _151
REMARK   64  A    between atoms: _151  and  _152
REMARK   65  A    between atoms: _155  and  _157
REMARK   66  A    between atoms: _157  and  _158
REMARK   67  A    between atoms: _157  and  _160
REMARK   68  A    between atoms: _160  and  _161
REMARK   69  A    between atoms: _163  and  _165
REMARK   70  A    between atoms: _165  and  _166
REMARK   71  A    between atoms: _165  and  _168
REMARK   72  A    between atoms: _168  and  _169
REMARK   73  A    between atoms: _172  and  _174
REMARK   74  A    between atoms: _174  and  _175
REMARK   75  A    between atoms: _174  and  _177
REMARK   76  A    between atoms: _177  and  _178
REMARK   77  A    between atoms: _178  and  _179
REMARK   78  A    between atoms: _179  and  _180
REMARK   79  A    between atoms: _190  and  _191
REMARK   80  A    between atoms: _196  and  _198
REMARK   81  A    between atoms: _198  and  _199
REMARK   82  A    between atoms: _198  and  _201
REMARK   83  A    between atoms: _201  and  _202
REMARK   84  A    between atoms: _202  and  _203
REMARK   85  A    between atoms: _203  and  _204
REMARK   86  A    between atoms: _213  and  _215
REMARK   87  A    between atoms: _215  and  _216
REMARK   88  A    between atoms: _215  and  _218
REMARK   89  A    between atoms: _221  and  _223
REMARK   90  A    between atoms: _223  and  _224
REMARK   91  A    between atoms: _223  and  _226
REMARK   92  A    between atoms: _229  and  _231
REMARK   93  A    between atoms: _231  and  _232
REMARK   94  A    between atoms: _231  and  _234
REMARK   95  A    between atoms: _234  and  _235
REMARK   96  A    between atoms: _235  and  _236
REMARK   97  A    between atoms: _238  and  _240
REMARK   98  A    between atoms: _240  and  _241
REMARK   99  A    between atoms: _244  and  _246
REMARK  100  A    between atoms: _246  and  _247
REMARK  101  A    between atoms: _246  and  _249
REMARK  102  A    between atoms: _249  and  _250
REMARK  103  A    between atoms: _252  and  _254
REMARK  104  A    between atoms: _254  and  _255
REMARK  105  A    between atoms: _258  and  _260
REMARK  106  A    between atoms: _260  and  _261
REMARK  107  A    between atoms: _260  and  _263
REMARK  108  A    between atoms: _263  and  _264
REMARK  109  A    between atoms: _264  and  _265
REMARK  110  A    between atoms: _270  and  _272
REMARK  111  A    between atoms: _272  and  _273
REMARK  112  A    between atoms: _272  and  _275
REMARK  113  A    between atoms: _278  and  _280
REMARK  114  A    between atoms: _280  and  _281
REMARK  115  A    between atoms: _280  and  _283
REMARK  116  A    between atoms: _283  and  _284
REMARK  117  A    between atoms: _284  and  _285
REMARK  118  A    between atoms: _285  and  _286
REMARK  119  A    between atoms: _286  and  _287
REMARK  120  A    between atoms: _291  and  _293
REMARK  121  A    between atoms: _293  and  _294
REMARK  122  A    between atoms: _293  and  _296
REMARK  123  A    between atoms: _296  and  _297
REMARK  124  A    between atoms: _299  and  _301
REMARK  125  A    between atoms: _301  and  _302
REMARK  126  A    between atoms: _305  and  _307
REMARK  127  A    between atoms: _307  and  _308
REMARK  128  A    between atoms: _307  and  _310
REMARK  129  A    between atoms: _310  and  _311
REMARK  130  A    between atoms: _314  and  _316
REMARK  131  A    between atoms: _316  and  _317
REMARK  132  A    between atoms: _316  and  _319
REMARK  133  A    between atoms: _319  and  _320
REMARK  134  A    between atoms: _320  and  _321
REMARK  135  A    between atoms: _321  and  _322
REMARK  136  A    between atoms: _331  and  _333
REMARK  137  A    between atoms: _333  and  _334
REMARK  138  A    between atoms: _333  and  _336
REMARK  139  A    between atoms: _336  and  _337
REMARK  140  A    between atoms: _340  and  _342
REMARK  141  A    between atoms: _342  and  _343
REMARK  142  A    between atoms: _342  and  _345
REMARK  143  A    between atoms: _345  and  _346
REMARK  144  A    between atoms: _351  and  _353
REMARK  145  A    between atoms: _353  and  _354
REMARK  146  A    between atoms: _353  and  _356
REMARK  147  A    between atoms: _356  and  _357
REMARK  148  A    between atoms: _360  and  _362
REMARK  149  A    between atoms: _362  and  _363
REMARK  150  A    between atoms: _362  and  _365
REMARK  151  A    between atoms: _365  and  _366
REMARK  152  A    between atoms: _369  and  _371
REMARK  153  A    between atoms: _371  and  _372
REMARK  154  A    between atoms: _371  and  _374
REMARK  155  A    between atoms: _374  and  _375
REMARK  156  A    between atoms: _377  and  _379
REMARK  157  A    between atoms: _379  and  _380
REMARK  158  A    between atoms: _379  and  _382
REMARK  159  A    between atoms: _382  and  _383
REMARK  160  A    between atoms: _383  and  _384
REMARK  161  A    between atoms: _384  and  _385
REMARK  162  A    between atoms: _394  and  _396
REMARK  163  A    between atoms: _396  and  _397
REMARK  164  A    between atoms: _401  and  _402
REMARK  165  A    between atoms: _407  and  _409
REMARK  166  A    between atoms: _409  and  _410
REMARK  167  A    between atoms: _409  and  _412
REMARK  168  A    between atoms: _412  and  _413
REMARK  169  A    between atoms: _413  and  _414
REMARK  170  A    between atoms: _416  and  _418
REMARK  171  A    between atoms: _418  and  _419
REMARK  172  A    between atoms: _418  and  _421
REMARK  173  A    between atoms: _421  and  _422
REMARK  174  A    between atoms: _425  and  _427
REMARK  175  A    between atoms: _427  and  _428
REMARK  176  A    between atoms: _427  and  _430
REMARK  177  A    between atoms: _430  and  _431
REMARK  178  A    between atoms: _434  and  _436
REMARK  179  A    between atoms: _436  and  _437
REMARK  180  A    between atoms: _436  and  _439
REMARK  181  A    between atoms: _439  and  _440
REMARK  182  A    between atoms: _440  and  _441
REMARK  183  A    between atoms: _445  and  _446
REMARK  184  A    between atoms: _451  and  _453
REMARK  185  A    between atoms: _453  and  _454
REMARK  186  A    between atoms: _453  and  _456
REMARK  187  A    between atoms: _456  and  _457
REMARK  188  A    between atoms: _457  and  _458
REMARK  189  A    between atoms: _461  and  _463
REMARK  190  A    between atoms: _463  and  _464
REMARK  191  A    between atoms: _463  and  _466
REMARK  192  A    between atoms: _466  and  _467
REMARK  193  A    between atoms: _470  and  _472
REMARK  194  A    between atoms: _472  and  _473
REMARK  195  A    between atoms: _472  and  _475
REMARK  196  A    between atoms: _478  and  _480
REMARK  197  A    between atoms: _480  and  _481
REMARK  198  A    between atoms: _480  and  _483
REMARK  199  A    between atoms: _483  and  _484
REMARK  200  A    between atoms: _484  and  _485
REMARK  201  A    between atoms: _485  and  _486
REMARK  202  A    between atoms: _486  and  _487
REMARK  203  A    between atoms: _491  and  _493
REMARK  204  A    between atoms: _493  and  _494
REMARK  205  A    between atoms: _493  and  _496
REMARK  206  A    between atoms: _496  and  _497
REMARK  207  A    between atoms: _497  and  _498
REMARK  208  A    between atoms: _501  and  _503
REMARK  209  A    between atoms: _503  and  _504
REMARK  210  A    between atoms: _503  and  _506
REMARK  211  A    between atoms: _506  and  _507
REMARK  212  A    between atoms: _509  and  _511
REMARK  213  A    between atoms: _511  and  _512
REMARK  214  A    between atoms: _511  and  _514
REMARK  215  A    between atoms: _514  and  _515
REMARK  216  A    between atoms: _515  and  _516
REMARK  217  A    between atoms: _516  and  _517
REMARK  218  A    between atoms: _526  and  _528
REMARK  219  A    between atoms: _528  and  _529
REMARK  220  A    between atoms: _528  and  _531
REMARK  221  A    between atoms: _531  and  _532
REMARK  222  A    between atoms: _535  and  _537
REMARK  223  A    between atoms: _537  and  _538
REMARK  224  A    between atoms: _537  and  _540
REMARK  225  A    between atoms: _540  and  _541
REMARK  226  A    between atoms: _546  and  _548
REMARK  227  A    between atoms: _548  and  _549
REMARK  228  A    between atoms: _548  and  _551
REMARK  229  A    between atoms: _551  and  _552
REMARK  230  A    between atoms: _552  and  _553
REMARK  231  A    between atoms: _553  and  _554
REMARK  232  A    between atoms: _563  and  _565
REMARK  233  A    between atoms: _565  and  _566
REMARK  234  A    between atoms: _565  and  _568
REMARK  235  A    between atoms: _568  and  _569
REMARK  236  A    between atoms: _572  and  _574
REMARK  237  A    between atoms: _574  and  _575
REMARK  238  A    between atoms: _574  and  _577
REMARK  239  A    between atoms: _577  and  _578
REMARK  240  A    between atoms: _581  and  _583
REMARK  241  A    between atoms: _583  and  _584
REMARK  242  A    between atoms: _583  and  _586
REMARK  243  A    between atoms: _586  and  _587
REMARK                            x       y       z     vdW  Elec       q    Type
REMARK                         _______ _______ _______ _____ _____    ______ ____
ROOT
ATOM      1  C   GLU A   1    -132.501  30.655 116.886  0.00  0.00    +0.238 C 
ATOM      2  O   GLU A   1    -132.416  29.790 117.748  0.00  0.00    -0.274 OA
ATOM      3  N   LEU A   2    -133.637  31.281 116.621  0.00  0.00    -0.298 N 
ATOM      4  H   LEU A   2    -133.666  32.039 115.910  0.00  0.00    +0.150 HD
ENDROOT
BRANCH   1   5
ATOM      5  CA  GLU A   1    -131.274  31.055 116.095  0.00  0.00    +0.145 C 
BRANCH   5   6
ATOM      6  N   GLU A   1    -131.570  31.650 114.804  0.00  0.00    -0.238 NA
ATOM      7  H   GLU A   1    -131.299  32.636 114.613  0.00  0.00    +0.142 HD
ENDBRANCH   5   6
BRANCH   5   8
ATOM      8  CB  GLU A   1    -130.391  31.966 116.949  0.00  0.00    +0.038 C 
BRANCH   8   9
ATOM      9  CG  GLU A   1    -128.941  31.930 116.527  0.00  0.00    +0.116 C 
BRANCH   9  10
ATOM     10  CD  GLU A   1    -128.286  30.607 116.862  0.00  0.00    +0.365 C 
ATOM     11  OE2 GLU A   1    -128.146  30.314 118.070  0.00  0.00    -0.246 OA
ATOM     12  OE1 GLU A   1    -127.938  29.863 115.924  0.00  0.00    -0.246 OA
ENDBRANCH   9  10
ENDBRANCH   8   9
ENDBRANCH   5   8
ENDBRANCH   1   5
BRANCH   3  13
ATOM     13  CA  LEU A   2    -134.842  30.896 117.335  0.00  0.00    +0.137 C 
BRANCH  13  14
ATOM     14  C   LEU A   2    -135.245  29.443 117.062  0.00  0.00    +0.227 C 
ATOM     15  O   LEU A   2    -135.878  28.803 117.907  0.00  0.00    -0.286 OA
ENDBRANCH  13  14
BRANCH  13  16
ATOM     16  CB  LEU A   2    -136.014  31.820 116.965  0.00  0.00    +0.028 C 
BRANCH  16  17
ATOM     17  CG  LEU A   2    -135.943  33.298 117.373  0.00  0.00    +0.002 C 
ATOM     18  CD2 LEU A   2    -135.738  33.426 118.878  0.00  0.00    +0.000 C 
ATOM     19  CD1 LEU A   2    -137.273  33.962 116.979  0.00  0.00    +0.000 C 
ENDBRANCH  16  17
ENDBRANCH  13  16
ENDBRANCH   3  13
TORSDOF 9
REMARK  Name = ../refined-set-2016/2pqc/2pqc_pocket.pdb
REMARK  243 active torsions:
REMARK  status: ('A' for Active; 'I' for Inactive)
REMARK    1  A    between atoms: _1  and  _3
REMARK    2  A    between atoms: _3  and  _4
REMARK    3  A    between atoms: _3  and  _6
REMARK    4  A    between atoms: _6  and  _7
REMARK    5  A    between atoms: _10  and  _12
REMARK    6  A    between atoms: _12  and  _13
REMARK    7  A    between atoms: _12  and  _15
REMARK    8  A    between atoms: _15  and  _16
REMARK    9  A    between atoms: _16  and  _17
REMARK   10  A    between atoms: _17  and  _18
REMARK   11  A    between atoms: _18  and  _19
REMARK   12  A    between atoms: _23  and  _25
REMARK   13  A    between atoms: _25  and  _26
REMARK   14  A    between atoms: _25  and  _28
REMARK   15  A    between atoms: _28  and  _29
REMARK   16  A    between atoms: _31  and  _33
REMARK   17  A    between atoms: _33  and  _34
REMARK   18  A    between atoms: _33  and  _36
REMARK   19  A    between atoms: _36  and  _37
REMARK   20  A    between atoms: _40  and  _42
REMARK   21  A    between atoms: _42  and  _43
REMARK   22  A    between atoms: _42  and  _45
REMARK   23  A    between atoms: _45  and  _46
REMARK   24  A    between atoms: _48  and  _50
REMARK   25  A    between atoms: _50  and  _51
REMARK   26  A    between atoms: _50  and  _53
REMARK   27  A    between atoms: _53  and  _54
REMARK   28  A    between atoms: _59  and  _61
REMARK   29  A    between atoms: _61  and  _62
REMARK   30  A    between atoms: _61  and  _64
REMARK   31  A    between atoms: _64  and  _65
REMARK   32  A    between atoms: _65  and  _66
REMARK   33  A    between atoms: _66  and  _67
REMARK   34  A    between atoms: _76  and  _78
REMARK   35  A    between atoms: _78  and  _79
REMARK   36  A    between atoms: _78  and  _81
REMARK   37  A    between atoms: _81  and  _82
REMARK   38  A    between atoms: _85  and  _87
REMARK   39  A    between atoms: _87  and  _88
REMARK   40  A    between atoms: _87  and  _90
REMARK   41  A    between atoms: _90  and  _91
REMARK   42  A    between atoms: _96  and  _98
REMARK   43  A    between atoms: _98  and  _99
REMARK   44  A    between atoms: _102  and  _104
REMARK   45  A    between atoms: _104  and  _105
REMARK   46  A    between atoms: _108  and  _110
REMARK   47  A    between atoms: _110  and  _111
REMARK   48  A    between atoms: _110  and  _113
REMARK   49  A    between atoms: _113  and  _114
REMARK   50  A    between atoms: _117  and  _119
REMARK   51  A    between atoms: _119  and  _120
REMARK   52  A    between atoms: _122  and  _124
REMARK   53  A    between atoms: _124  and  _125
REMARK   54  A    between atoms: _124  and  _127
REMARK   55  A    between atoms: _129  and  _131
REMARK   56  A    between atoms: _131  and  _132
REMARK   57  A    between atoms: _131  and  _134
REMARK   58  A    between atoms: _134  and  _135
REMARK   59  A    between atoms: _135  and  _136
REMARK   60  A    between atoms: _136  and  _137
REMARK   61  A    between atoms: _146  and  _148
REMARK   62  A    between atoms: _148  and  _149
REMARK   63  A    between atoms: _148  and  _151
REMARK   64  A    between atoms: _151  and  _152
REMARK   65  A    between atoms: _155  and  _157
REMARK   66  A    between atoms: _157  and  _158
REMARK   67  A    between atoms: _157  and  _160
REMARK   68  A    between atoms: _160  and  _161
REMARK   69  A    between atoms: _163  and  _165
REMARK   70  A    between atoms: _165  and  _166
REMARK   71  A    between atoms: _165  and  _168
REMARK   72  A    between atoms: _168  and  _169
REMARK   73  A    between atoms: _172  and  _174
REMARK   74  A    between atoms: _174  and  _175
REMARK   75  A    between atoms: _174  and  _177
REMARK   76  A    between atoms: _177  and  _178
REMARK   77  A    between atoms: _178  and  _179
REMARK   78  A    between atoms: _179  and  _180
REMARK   79  A    between atoms: _190  and  _191
REMARK   80  A    between atoms: _196  and  _198
REMARK   81  A    between atoms: _198  and  _199
REMARK   82  A    between atoms: _198  and  _201
REMARK   83  A    between atoms: _201  and  _202
REMARK   84  A    between atoms: _202  and  _203
REMARK   85  A    between atoms: _203  and  _204
REMARK   86  A    between atoms: _213  and  _215
REMARK   87  A    between atoms: _215  and  _216
REMARK   88  A    between atoms: _215  and  _218
REMARK   89  A    between atoms: _221  and  _223
REMARK   90  A    between atoms: _223  and  _224
REMARK   91  A    between atoms: _223  and  _226
REMARK   92  A    between atoms: _229  and  _231
REMARK   93  A    between atoms: _231  and  _232
REMARK   94  A    between atoms: _231  and  _234
REMARK   95  A    between atoms: _234  and  _235
REMARK   96  A    between atoms: _235  and  _236
REMARK   97  A    between atoms: _238  and  _240
REMARK   98  A    between atoms: _240  and  _241
REMARK   99  A    between atoms: _244  and  _246
REMARK  100  A    between atoms: _246  and  _247
REMARK  101  A    between atoms: _246  and  _249
REMARK  102  A    between atoms: _249  and  _250
REMARK  103  A    between atoms: _252  and  _254
REMARK  104  A    between atoms: _254  and  _255
REMARK  105  A    between atoms: _258  and  _260
REMARK  106  A    between atoms: _260  and  _261
REMARK  107  A    between atoms: _260  and  _263
REMARK  108  A    between atoms: _263  and  _264
REMARK  109  A    between atoms: _264  and  _265
REMARK  110  A    between atoms: _270  and  _272
REMARK  111  A    between atoms: _272  and  _273
REMARK  112  A    between atoms: _272  and  _275
REMARK  113  A    between atoms: _278  and  _280
REMARK  114  A    between atoms: _280  and  _281
REMARK  115  A    between atoms: _280  and  _283
REMARK  116  A    between atoms: _283  and  _284
REMARK  117  A    between atoms: _284  and  _285
REMARK  118  A    between atoms: _285  and  _286
REMARK  119  A    between atoms: _286  and  _287
REMARK  120  A    between atoms: _291  and  _293
REMARK  121  A    between atoms: _293  and  _294
REMARK  122  A    between atoms: _293  and  _296
REMARK  123  A    between atoms: _296  and  _297
REMARK  124  A    between atoms: _299  and  _301
REMARK  125  A    between atoms: _301  and  _302
REMARK  126  A    between atoms: _305  and  _307
REMARK  127  A    between atoms: _307  and  _308
REMARK  128  A    between atoms: _307  and  _310
REMARK  129  A    between atoms: _310  and  _311
REMARK  130  A    between atoms: _314  and  _316
REMARK  131  A    between atoms: _316  and  _317
REMARK  132  A    between atoms: _316  and  _319
REMARK  133  A    between atoms: _319  and  _320
REMARK  134  A    between atoms: _320  and  _321
REMARK  135  A    between atoms: _321  and  _322
REMARK  136  A    between atoms: _331  and  _333
REMARK  137  A    between atoms: _333  and  _334
REMARK  138  A    between atoms: _333  and  _336
REMARK  139  A    between atoms: _336  and  _337
REMARK  140  A    between atoms: _340  and  _342
REMARK  141  A    between atoms: _342  and  _343
REMARK  142  A    between atoms: _342  and  _345
REMARK  143  A    between atoms: _345  and  _346
REMARK  144  A    between atoms: _351  and  _353
REMARK  145  A    between atoms: _353  and  _354
REMARK  146  A    between atoms: _353  and  _356
REMARK  147  A    between atoms: _356  and  _357
REMARK  148  A    between atoms: _360  and  _362
REMARK  149  A    between atoms: _362  and  _363
REMARK  150  A    between atoms: _362  and  _365
REMARK  151  A    between atoms: _365  and  _366
REMARK  152  A    between atoms: _369  and  _371
REMARK  153  A    between atoms: _371  and  _372
REMARK  154  A    between atoms: _371  and  _374
REMARK  155  A    between atoms: _374  and  _375
REMARK  156  A    between atoms: _377  and  _379
REMARK  157  A    between atoms: _379  and  _380
REMARK  158  A    between atoms: _379  and  _382
REMARK  159  A    between atoms: _382  and  _383
REMARK  160  A    between atoms: _383  and  _384
REMARK  161  A    between atoms: _384  and  _385
REMARK  162  A    between atoms: _394  and  _396
REMARK  163  A    between atoms: _396  and  _397
REMARK  164  A    between atoms: _401  and  _402
REMARK  165  A    between atoms: _407  and  _409
REMARK  166  A    between atoms: _409  and  _410
REMARK  167  A    between atoms: _409  and  _412
REMARK  168  A    between atoms: _412  and  _413
REMARK  169  A    between atoms: _413  and  _414
REMARK  170  A    between atoms: _416  and  _418
REMARK  171  A    between atoms: _418  and  _419
REMARK  172  A    between atoms: _418  and  _421
REMARK  173  A    between atoms: _421  and  _422
REMARK  174  A    between atoms: _425  and  _427
REMARK  175  A    between atoms: _427  and  _428
REMARK  176  A    between atoms: _427  and  _430
REMARK  177  A    between atoms: _430  and  _431
REMARK  178  A    between atoms: _434  and  _436
REMARK  179  A    between atoms: _436  and  _437
REMARK  180  A    between atoms: _436  and  _439
REMARK  181  A    between atoms: _439  and  _440
REMARK  182  A    between atoms: _440  and  _441
REMARK  183  A    between atoms: _445  and  _446
REMARK  184  A    between atoms: _451  and  _453
REMARK  185  A    between atoms: _453  and  _454
REMARK  186  A    between atoms: _453  and  _456
REMARK  187  A    between atoms: _456  and  _457
REMARK  188  A    between atoms: _457  and  _458
REMARK  189  A    between atoms: _461  and  _463
REMARK  190  A    between atoms: _463  and  _464
REMARK  191  A    between atoms: _463  and  _466
REMARK  192  A    between atoms: _466  and  _467
REMARK  193  A    between atoms: _470  and  _472
REMARK  194  A    between atoms: _472  and  _473
REMARK  195  A    between atoms: _472  and  _475
REMARK  196  A    between atoms: _478  and  _480
REMARK  197  A    between atoms: _480  and  _481
REMARK  198  A    between atoms: _480  and  _483
REMARK  199  A    between atoms: _483  and  _484
REMARK  200  A    between atoms: _484  and  _485
REMARK  201  A    between atoms: _485  and  _486
REMARK  202  A    between atoms: _486  and  _487
REMARK  203  A    between atoms: _491  and  _493
REMARK  204  A    between atoms: _493  and  _494
REMARK  205  A    between atoms: _493  and  _496
REMARK  206  A    between atoms: _496  and  _497
REMARK  207  A    between atoms: _497  and  _498
REMARK  208  A    between atoms: _501  and  _503
REMARK  209  A    between atoms: _503  and  _504
REMARK  210  A    between atoms: _503  and  _506
REMARK  211  A    between atoms: _506  and  _507
REMARK  212  A    between atoms: _509  and  _511
REMARK  213  A    between atoms: _511  and  _512
REMARK  214  A    between atoms: _511  and  _514
REMARK  215  A    between atoms: _514  and  _515
REMARK  216  A    between atoms: _515  and  _516
REMARK  217  A    between atoms: _516  and  _517
REMARK  218  A    between atoms: _526  and  _528
REMARK  219  A    between atoms: _528  and  _529
REMARK  220  A    between atoms: _528  and  _531
REMARK  221  A    between atoms: _531  and  _532
REMARK  222  A    between atoms: _535  and  _537
REMARK  223  A    between atoms: _537  and  _538
REMARK  224  A    between atoms: _537  and  _540
REMARK  225  A    between atoms: _540  and  _541
REMARK  226  A    between atoms: _546  and  _548
REMARK  227  A    between atoms: _548  and  _549
REMARK  228  A    between atoms: _548  and  _551
REMARK  229  A    between atoms: _551  and  _552
REMARK  230  A    between atoms: _552  and  _553
REMARK  231  A    between atoms: _553  and  _554
REMARK  232  A    between atoms: _563  and  _565
REMARK  233  A    between atoms: _565  and  _566
REMARK  234  A    between atoms: _565  and  _568
REMARK  235  A    between atoms: _568  and  _569
REMARK  236  A    between atoms: _572  and  _574
REMARK  237  A    between atoms: _574  and  _575
REMARK  238  A    between atoms: _574  and  _577
REMARK  239  A    between atoms: _577  and  _578
REMARK  240  A    between atoms: _581  and  _583
REMARK  241  A    between atoms: _583  and  _584
REMARK  242  A    between atoms: _583  and  _586
REMARK  243  A    between atoms: _586  and  _587
REMARK                            x       y       z     vdW  Elec       q    Type
REMARK                         _______ _______ _______ _____ _____    ______ ____
ROOT
ATOM      1  C   LYS A   2    -134.797  25.713 121.949  0.00  0.00    +0.241 C 
ATOM      2  N   GLU A   3    -135.311  25.939 123.159  0.00  0.00    -0.297 N 
ATOM      3  H   GLU A   3    -135.165  26.866 123.608  0.00  0.00    +0.150 HD
ATOM      4  O   LYS A   2    -134.919  24.637 121.359  0.00  0.00    -0.273 OA
ENDROOT
BRANCH   2   5
ATOM      5  CA  GLU A   3    -136.081  24.907 123.874  0.00  0.00    +0.149 C 
BRANCH   5   6
ATOM      6  C   GLU A   3    -137.105  24.284 122.924  0.00  0.00    +0.241 C 
ATOM      7  O   GLU A   3    -137.357  23.073 122.960  0.00  0.00    -0.273 OA
ATOM      8  N   SER A   4    -137.698  25.145 122.111  0.00  0.00    -0.296 N 
ATOM      9  H   SER A   4    -137.498  26.157 122.240  0.00  0.00    +0.150 HD
BRANCH   8  10
ATOM     10  CA  SER A   4    -138.621  24.755 121.039  0.00  0.00    +0.166 C 
BRANCH  10  11
ATOM     11  C   SER A   4    -138.109  25.537 119.841  0.00  0.00    +0.229 C 
ATOM     12  O   SER A   4    -137.249  26.405 119.991  0.00  0.00    -0.286 OA
ENDBRANCH  10  11
BRANCH  10  13
ATOM     13  CB  SER A   4    -140.048  25.246 121.307  0.00  0.00    +0.165 C 
BRANCH  13  14
ATOM     14  OG  SER A   4    -140.104  26.663 121.258  0.00  0.00    -0.380 OA
ATOM     15  H   SER A   4    -139.499  27.040 121.945  0.00  0.00    +0.211 HD
ENDBRANCH  13  14
ENDBRANCH  10  13
ENDBRANCH   8  10
ENDBRANCH   5   6
BRANCH   5  16
ATOM     16  CB  GLU A   3    -136.785  25.507 125.093  0.00  0.00    +0.041 C 
BRANCH  16  17
ATOM     17  CG  GLU A   3    -135.868  25.638 126.281  0.00  0.00    +0.116 C 
BRANCH  17  18
ATOM     18  CD  GLU A   3    -135.224  26.973 126.365  0.00  0.00    +0.365 C 
ATOM     19  OE2 GLU A   3    -135.184  27.510 127.495  0.00  0.00    -0.246 OA
ATOM     20  OE1 GLU A   3    -134.762  27.496 125.323  0.00  0.00    -0.246 OA
ENDBRANCH  17  18
ENDBRANCH  16  17
ENDBRANCH   5  16
ENDBRANCH   2   5
BRANCH   1  21
ATOM     21  CA  LYS A   2    -134.005  26.849 121.286  0.00  0.00    +0.149 C 
BRANCH  21  24
ATOM     22  C   VAL A   1    -132.846  25.930 119.358  0.00  0.00    +0.238 C 
ATOM     23  O   VAL A   1    -131.983  25.425 120.078  0.00  0.00    -0.274 OA
ATOM     24  N   LYS A   2    -133.869  26.622 119.854  0.00  0.00    -0.297 N 
ATOM     25  H   LYS A   2    -134.585  27.008 119.206  0.00  0.00    +0.150 HD
BRANCH  22  26
ATOM     26  CA  VAL A   1    -132.800  25.758 117.831  0.00  0.00    +0.145 C 
BRANCH  26  27
ATOM     27  CB  VAL A   1    -131.310  25.667 117.348  0.00  0.00    +0.025 C 
ATOM     28  CG2 VAL A   1    -130.579  27.013 117.504  0.00  0.00    +0.002 C 
ATOM     29  CG1 VAL A   1    -131.274  25.184 115.893  0.00  0.00    +0.002 C 
ENDBRANCH  26  27
BRANCH  26  30
ATOM     30  N   VAL A   1    -133.548  26.758 117.074  0.00  0.00    -0.238 NA
ATOM     31  H   VAL A   1    -133.253  27.754 117.121  0.00  0.00    +0.142 HD
ENDBRANCH  26  30
ENDBRANCH  22  26
ENDBRANCH  21  24
BRANCH  21  32
ATOM     32  CB  LYS A   2    -134.667  28.212 121.531  0.00  0.00    +0.029 C 
BRANCH  32  33
ATOM     33  CG  LYS A   2    -133.865  29.374 120.913  0.00  0.00    +0.000 C 
BRANCH  33  34
ATOM     34  CD  LYS A   2    -132.542  29.609 121.670  0.00  0.00    -0.024 C 
BRANCH  34  35
ATOM     35  CE  LYS A   2    -131.796  30.777 121.033  0.00  0.00    -0.086 C 
BRANCH  35  36
ATOM     36  NZ  LYS A   2    -130.546  31.106 121.767  0.00  0.00    +0.380 N 
ATOM     37  HZ1 LYS A   2    -130.779  31.364 122.747  0.00  0.00    -0.089 HD
ATOM     38  HZ2 LYS A   2    -129.916  30.278 121.766  0.00  0.00    -0.089 HD
ATOM     39  HZ3 LYS A   2    -130.071  31.905 121.300  0.00  0.00    -0.089 HD
ENDBRANCH  35  36
ENDBRANCH  34  35
ENDBRANCH  33  34
ENDBRANCH  32  33
ENDBRANCH  21  32
ENDBRANCH   1  21
TORSDOF 19
REMARK  Name = ../refined-set-2016/2pqc/2pqc_pocket.pdb
REMARK  243 active torsions:
REMARK  status: ('A' for Active; 'I' for Inactive)
REMARK    1  A    between atoms: _1  and  _3
REMARK    2  A    between atoms: _3  and  _4
REMARK    3  A    between atoms: _3  and  _6
REMARK    4  A    between atoms: _6  and  _7
REMARK    5  A    between atoms: _10  and  _12
REMARK    6  A    between atoms: _12  and  _13
REMARK    7  A    between atoms: _12  and  _15
REMARK    8  A    between atoms: _15  and  _16
REMARK    9  A    between atoms: _16  and  _17
REMARK   10  A    between atoms: _17  and  _18
REMARK   11  A    between atoms: _18  and  _19
REMARK   12  A    between atoms: _23  and  _25
REMARK   13  A    between atoms: _25  and  _26
REMARK   14  A    between atoms: _25  and  _28
REMARK   15  A    between atoms: _28  and  _29
REMARK   16  A    between atoms: _31  and  _33
REMARK   17  A    between atoms: _33  and  _34
REMARK   18  A    between atoms: _33  and  _36
REMARK   19  A    between atoms: _36  and  _37
REMARK   20  A    between atoms: _40  and  _42
REMARK   21  A    between atoms: _42  and  _43
REMARK   22  A    between atoms: _42  and  _45
REMARK   23  A    between atoms: _45  and  _46
REMARK   24  A    between atoms: _48  and  _50
REMARK   25  A    between atoms: _50  and  _51
REMARK   26  A    between atoms: _50  and  _53
REMARK   27  A    between atoms: _53  and  _54
REMARK   28  A    between atoms: _59  and  _61
REMARK   29  A    between atoms: _61  and  _62
REMARK   30  A    between atoms: _61  and  _64
REMARK   31  A    between atoms: _64  and  _65
REMARK   32  A    between atoms: _65  and  _66
REMARK   33  A    between atoms: _66  and  _67
REMARK   34  A    between atoms: _76  and  _78
REMARK   35  A    between atoms: _78  and  _79
REMARK   36  A    between atoms: _78  and  _81
REMARK   37  A    between atoms: _81  and  _82
REMARK   38  A    between atoms: _85  and  _87
REMARK   39  A    between atoms: _87  and  _88
REMARK   40  A    between atoms: _87  and  _90
REMARK   41  A    between atoms: _90  and  _91
REMARK   42  A    between atoms: _96  and  _98
REMARK   43  A    between atoms: _98  and  _99
REMARK   44  A    between atoms: _102  and  _104
REMARK   45  A    between atoms: _104  and  _105
REMARK   46  A    between atoms: _108  and  _110
REMARK   47  A    between atoms: _110  and  _111
REMARK   48  A    between atoms: _110  and  _113
REMARK   49  A    between atoms: _113  and  _114
REMARK   50  A    between atoms: _117  and  _119
REMARK   51  A    between atoms: _119  and  _120
REMARK   52  A    between atoms: _122  and  _124
REMARK   53  A    between atoms: _124  and  _125
REMARK   54  A    between atoms: _124  and  _127
REMARK   55  A    between atoms: _129  and  _131
REMARK   56  A    between atoms: _131  and  _132
REMARK   57  A    between atoms: _131  and  _134
REMARK   58  A    between atoms: _134  and  _135
REMARK   59  A    between atoms: _135  and  _136
REMARK   60  A    between atoms: _136  and  _137
REMARK   61  A    between atoms: _146  and  _148
REMARK   62  A    between atoms: _148  and  _149
REMARK   63  A    between atoms: _148  and  _151
REMARK   64  A    between atoms: _151  and  _152
REMARK   65  A    between atoms: _155  and  _157
REMARK   66  A    between atoms: _157  and  _158
REMARK   67  A    between atoms: _157  and  _160
REMARK   68  A    between atoms: _160  and  _161
REMARK   69  A    between atoms: _163  and  _165
REMARK   70  A    between atoms: _165  and  _166
REMARK   71  A    between atoms: _165  and  _168
REMARK   72  A    between atoms: _168  and  _169
REMARK   73  A    between atoms: _172  and  _174
REMARK   74  A    between atoms: _174  and  _175
REMARK   75  A    between atoms: _174  and  _177
REMARK   76  A    between atoms: _177  and  _178
REMARK   77  A    between atoms: _178  and  _179
REMARK   78  A    between atoms: _179  and  _180
REMARK   79  A    between atoms: _190  and  _191
REMARK   80  A    between atoms: _196  and  _198
REMARK   81  A    between atoms: _198  and  _199
REMARK   82  A    between atoms: _198  and  _201
REMARK   83  A    between atoms: _201  and  _202
REMARK   84  A    between atoms: _202  and  _203
REMARK   85  A    between atoms: _203  and  _204
REMARK   86  A    between atoms: _213  and  _215
REMARK   87  A    between atoms: _215  and  _216
REMARK   88  A    between atoms: _215  and  _218
REMARK   89  A    between atoms: _221  and  _223
REMARK   90  A    between atoms: _223  and  _224
REMARK   91  A    between atoms: _223  and  _226
REMARK   92  A    between atoms: _229  and  _231
REMARK   93  A    between atoms: _231  and  _232
REMARK   94  A    between atoms: _231  and  _234
REMARK   95  A    between atoms: _234  and  _235
REMARK   96  A    between atoms: _235  and  _236
REMARK   97  A    between atoms: _238  and  _240
REMARK   98  A    between atoms: _240  and  _241
REMARK   99  A    between atoms: _244  and  _246
REMARK  100  A    between atoms: _246  and  _247
REMARK  101  A    between atoms: _246  and  _249
REMARK  102  A    between atoms: _249  and  _250
REMARK  103  A    between atoms: _252  and  _254
REMARK  104  A    between atoms: _254  and  _255
REMARK  105  A    between atoms: _258  and  _260
REMARK  106  A    between atoms: _260  and  _261
REMARK  107  A    between atoms: _260  and  _263
REMARK  108  A    between atoms: _263  and  _264
REMARK  109  A    between atoms: _264  and  _265
REMARK  110  A    between atoms: _270  and  _272
REMARK  111  A    between atoms: _272  and  _273
REMARK  112  A    between atoms: _272  and  _275
REMARK  113  A    between atoms: _278  and  _280
REMARK  114  A    between atoms: _280  and  _281
REMARK  115  A    between atoms: _280  and  _283
REMARK  116  A    between atoms: _283  and  _284
REMARK  117  A    between atoms: _284  and  _285
REMARK  118  A    between atoms: _285  and  _286
REMARK  119  A    between atoms: _286  and  _287
REMARK  120  A    between atoms: _291  and  _293
REMARK  121  A    between atoms: _293  and  _294
REMARK  122  A    between atoms: _293  and  _296
REMARK  123  A    between atoms: _296  and  _297
REMARK  124  A    between atoms: _299  and  _301
REMARK  125  A    between atoms: _301  and  _302
REMARK  126  A    between atoms: _305  and  _307
REMARK  127  A    between atoms: _307  and  _308
REMARK  128  A    between atoms: _307  and  _310
REMARK  129  A    between atoms: _310  and  _311
REMARK  130  A    between atoms: _314  and  _316
REMARK  131  A    between atoms: _316  and  _317
REMARK  132  A    between atoms: _316  and  _319
REMARK  133  A    between atoms: _319  and  _320
REMARK  134  A    between atoms: _320  and  _321
REMARK  135  A    between atoms: _321  and  _322
REMARK  136  A    between atoms: _331  and  _333
REMARK  137  A    between atoms: _333  and  _334
REMARK  138  A    between atoms: _333  and  _336
REMARK  139  A    between atoms: _336  and  _337
REMARK  140  A    between atoms: _340  and  _342
REMARK  141  A    between atoms: _342  and  _343
REMARK  142  A    between atoms: _342  and  _345
REMARK  143  A    between atoms: _345  and  _346
REMARK  144  A    between atoms: _351  and  _353
REMARK  145  A    between atoms: _353  and  _354
REMARK  146  A    between atoms: _353  and  _356
REMARK  147  A    between atoms: _356  and  _357
REMARK  148  A    between atoms: _360  and  _362
REMARK  149  A    between atoms: _362  and  _363
REMARK  150  A    between atoms: _362  and  _365
REMARK  151  A    between atoms: _365  and  _366
REMARK  152  A    between atoms: _369  and  _371
REMARK  153  A    between atoms: _371  and  _372
REMARK  154  A    between atoms: _371  and  _374
REMARK  155  A    between atoms: _374  and  _375
REMARK  156  A    between atoms: _377  and  _379
REMARK  157  A    between atoms: _379  and  _380
REMARK  158  A    between atoms: _379  and  _382
REMARK  159  A    between atoms: _382  and  _383
REMARK  160  A    between atoms: _383  and  _384
REMARK  161  A    between atoms: _384  and  _385
REMARK  162  A    between atoms: _394  and  _396
REMARK  163  A    between atoms: _396  and  _397
REMARK  164  A    between atoms: _401  and  _402
REMARK  165  A    between atoms: _407  and  _409
REMARK  166  A    between atoms: _409  and  _410
REMARK  167  A    between atoms: _409  and  _412
REMARK  168  A    between atoms: _412  and  _413
REMARK  169  A    between atoms: _413  and  _414
REMARK  170  A    between atoms: _416  and  _418
REMARK  171  A    between atoms: _418  and  _419
REMARK  172  A    between atoms: _418  and  _421
REMARK  173  A    between atoms: _421  and  _422
REMARK  174  A    between atoms: _425  and  _427
REMARK  175  A    between atoms: _427  and  _428
REMARK  176  A    between atoms: _427  and  _430
REMARK  177  A    between atoms: _430  and  _431
REMARK  178  A    between atoms: _434  and  _436
REMARK  179  A    between atoms: _436  and  _437
REMARK  180  A    between atoms: _436  and  _439
REMARK  181  A    between atoms: _439  and  _440
REMARK  182  A    between atoms: _440  and  _441
REMARK  183  A    between atoms: _445  and  _446
REMARK  184  A    between atoms: _451  and  _453
REMARK  185  A    between atoms: _453  and  _454
REMARK  186  A    between atoms: _453  and  _456
REMARK  187  A    between atoms: _456  and  _457
REMARK  188  A    between atoms: _457  and  _458
REMARK  189  A    between atoms: _461  and  _463
REMARK  190  A    between atoms: _463  and  _464
REMARK  191  A    between atoms: _463  and  _466
REMARK  192  A    between atoms: _466  and  _467
REMARK  193  A    between atoms: _470  and  _472
REMARK  194  A    between atoms: _472  and  _473
REMARK  195  A    between atoms: _472  and  _475
REMARK  196  A    between atoms: _478  and  _480
REMARK  197  A    between atoms: _480  and  _481
REMARK  198  A    between atoms: _480  and  _483
REMARK  199  A    between atoms: _483  and  _484
REMARK  200  A    between atoms: _484  and  _485
REMARK  201  A    between atoms: _485  and  _486
REMARK  202  A    between atoms: _486  and  _487
REMARK  203  A    between atoms: _491  and  _493
REMARK  204  A    between atoms: _493  and  _494
REMARK  205  A    between atoms: _493  and  _496
REMARK  206  A    between atoms: _496  and  _497
REMARK  207  A    between atoms: _497  and  _498
REMARK  208  A    between atoms: _501  and  _503
REMARK  209  A    between atoms: _503  and  _504
REMARK  210  A    between atoms: _503  and  _506
REMARK  211  A    between atoms: _506  and  _507
REMARK  212  A    between atoms: _509  and  _511
REMARK  213  A    between atoms: _511  and  _512
REMARK  214  A    between atoms: _511  and  _514
REMARK  215  A    between atoms: _514  and  _515
REMARK  216  A    between atoms: _515  and  _516
REMARK  217  A    between atoms: _516  and  _517
REMARK  218  A    between atoms: _526  and  _528
REMARK  219  A    between atoms: _528  and  _529
REMARK  220  A    between atoms: _528  and  _531
REMARK  221  A    between atoms: _531  and  _532
REMARK  222  A    between atoms: _535  and  _537
REMARK  223  A    between atoms: _537  and  _538
REMARK  224  A    between atoms: _537  and  _540
REMARK  225  A    between atoms: _540  and  _541
REMARK  226  A    between atoms: _546  and  _548
REMARK  227  A    between atoms: _548  and  _549
REMARK  228  A    between atoms: _548  and  _551
REMARK  229  A    between atoms: _551  and  _552
REMARK  230  A    between atoms: _552  and  _553
REMARK  231  A    between atoms: _553  and  _554
REMARK  232  A    between atoms: _563  and  _565
REMARK  233  A    between atoms: _565  and  _566
REMARK  234  A    between atoms: _565  and  _568
REMARK  235  A    between atoms: _568  and  _569
REMARK  236  A    between atoms: _572  and  _574
REMARK  237  A    between atoms: _574  and  _575
REMARK  238  A    between atoms: _574  and  _577
REMARK  239  A    between atoms: _577  and  _578
REMARK  240  A    between atoms: _581  and  _583
REMARK  241  A    between atoms: _583  and  _584
REMARK  242  A    between atoms: _583  and  _586
REMARK  243  A    between atoms: _586  and  _587
REMARK                            x       y       z     vdW  Elec       q    Type
REMARK                         _______ _______ _______ _____ _____    ______ ____
ROOT
ATOM      1  NE  ARG A   1    -137.581  30.025 123.298  0.00  0.00    -0.265 N 
ATOM      2  CZ  ARG A   1    -136.724  30.283 124.275  0.00  0.00    +0.342 C 
ATOM      3  NH2 ARG A   1    -136.891  29.705 125.465  0.00  0.00    -0.292 N 
ATOM      4 HH21 ARG A   1    -136.223  29.902 126.237  0.00  0.00    +0.255 HD
ATOM      5 HH22 ARG A   1    -137.689  29.057 125.621  0.00  0.00    +0.255 HD
ATOM      6  NH1 ARG A   1    -135.702  31.110 124.062  0.00  0.00    -0.292 N 
ATOM      7 HH11 ARG A   1    -135.029  31.313 124.828  0.00  0.00    +0.255 HD
ATOM      8 HH12 ARG A   1    -135.577  31.553 123.129  0.00  0.00    +0.255 HD
ATOM      9  HE  ARG A   1    -138.364  29.373 123.506  0.00  0.00    +0.259 HD
ENDROOT
BRANCH   1  10
ATOM     10  CD  ARG A   1    -137.511  30.586 121.951  0.00  0.00    +0.174 C 
BRANCH  10  11
ATOM     11  CG  ARG A   1    -138.469  29.813 121.084  0.00  0.00    +0.045 C 
BRANCH  11  12
ATOM     12  CB  ARG A   1    -138.631  30.387 119.696  0.00  0.00    +0.029 C 
BRANCH  12  13
ATOM     13  CA  ARG A   1    -139.450  29.427 118.826  0.00  0.00    +0.133 C 
BRANCH  13  14
ATOM     14  N   ARG A   1    -138.631  28.303 118.380  0.00  0.00    -0.239 NA
ATOM     15  H   ARG A   1    -137.597  28.344 118.482  0.00  0.00    +0.142 HD
ENDBRANCH  13  14
BRANCH  13  16
ATOM     16  C   ARG A   1    -140.161  30.191 117.740  0.00  0.00    +0.224 C 
ATOM     17  O   ARG A   1    -141.232  30.756 117.977  0.00  0.00    -0.287 OA
ENDBRANCH  13  16
ENDBRANCH  12  13
ENDBRANCH  11  12
ENDBRANCH  10  11
ENDBRANCH   1  10
TORSDOF 6
REMARK  Name = ../refined-set-2016/2pqc/2pqc_pocket.pdb
REMARK  243 active torsions:
REMARK  status: ('A' for Active; 'I' for Inactive)
REMARK    1  A    between atoms: _1  and  _3
REMARK    2  A    between atoms: _3  and  _4
REMARK    3  A    between atoms: _3  and  _6
REMARK    4  A    between atoms: _6  and  _7
REMARK    5  A    between atoms: _10  and  _12
REMARK    6  A    between atoms: _12  and  _13
REMARK    7  A    between atoms: _12  and  _15
REMARK    8  A    between atoms: _15  and  _16
REMARK    9  A    between atoms: _16  and  _17
REMARK   10  A    between atoms: _17  and  _18
REMARK   11  A    between atoms: _18  and  _19
REMARK   12  A    between atoms: _23  and  _25
REMARK   13  A    between atoms: _25  and  _26
REMARK   14  A    between atoms: _25  and  _28
REMARK   15  A    between atoms: _28  and  _29
REMARK   16  A    between atoms: _31  and  _33
REMARK   17  A    between atoms: _33  and  _34
REMARK   18  A    between atoms: _33  and  _36
REMARK   19  A    between atoms: _36  and  _37
REMARK   20  A    between atoms: _40  and  _42
REMARK   21  A    between atoms: _42  and  _43
REMARK   22  A    between atoms: _42  and  _45
REMARK   23  A    between atoms: _45  and  _46
REMARK   24  A    between atoms: _48  and  _50
REMARK   25  A    between atoms: _50  and  _51
REMARK   26  A    between atoms: _50  and  _53
REMARK   27  A    between atoms: _53  and  _54
REMARK   28  A    between atoms: _59  and  _61
REMARK   29  A    between atoms: _61  and  _62
REMARK   30  A    between atoms: _61  and  _64
REMARK   31  A    between atoms: _64  and  _65
REMARK   32  A    between atoms: _65  and  _66
REMARK   33  A    between atoms: _66  and  _67
REMARK   34  A    between atoms: _76  and  _78
REMARK   35  A    between atoms: _78  and  _79
REMARK   36  A    between atoms: _78  and  _81
REMARK   37  A    between atoms: _81  and  _82
REMARK   38  A    between atoms: _85  and  _87
REMARK   39  A    between atoms: _87  and  _88
REMARK   40  A    between atoms: _87  and  _90
REMARK   41  A    between atoms: _90  and  _91
REMARK   42  A    between atoms: _96  and  _98
REMARK   43  A    between atoms: _98  and  _99
REMARK   44  A    between atoms: _102  and  _104
REMARK   45  A    between atoms: _104  and  _105
REMARK   46  A    between atoms: _108  and  _110
REMARK   47  A    between atoms: _110  and  _111
REMARK   48  A    between atoms: _110  and  _113
REMARK   49  A    between atoms: _113  and  _114
REMARK   50  A    between atoms: _117  and  _119
REMARK   51  A    between atoms: _119  and  _120
REMARK   52  A    between atoms: _122  and  _124
REMARK   53  A    between atoms: _124  and  _125
REMARK   54  A    between atoms: _124  and  _127
REMARK   55  A    between atoms: _129  and  _131
REMARK   56  A    between atoms: _131  and  _132
REMARK   57  A    between atoms: _131  and  _134
REMARK   58  A    between atoms: _134  and  _135
REMARK   59  A    between atoms: _135  and  _136
REMARK   60  A    between atoms: _136  and  _137
REMARK   61  A    between atoms: _146  and  _148
REMARK   62  A    between atoms: _148  and  _149
REMARK   63  A    between atoms: _148  and  _151
REMARK   64  A    between atoms: _151  and  _152
REMARK   65  A    between atoms: _155  and  _157
REMARK   66  A    between atoms: _157  and  _158
REMARK   67  A    between atoms: _157  and  _160
REMARK   68  A    between atoms: _160  and  _161
REMARK   69  A    between atoms: _163  and  _165
REMARK   70  A    between atoms: _165  and  _166
REMARK   71  A    between atoms: _165  and  _168
REMARK   72  A    between atoms: _168  and  _169
REMARK   73  A    between atoms: _172  and  _174
REMARK   74  A    between atoms: _174  and  _175
REMARK   75  A    between atoms: _174  and  _177
REMARK   76  A    between atoms: _177  and  _178
REMARK   77  A    between atoms: _178  and  _179
REMARK   78  A    between atoms: _179  and  _180
REMARK   79  A    between atoms: _190  and  _191
REMARK   80  A    between atoms: _196  and  _198
REMARK   81  A    between atoms: _198  and  _199
REMARK   82  A    between atoms: _198  and  _201
REMARK   83  A    between atoms: _201  and  _202
REMARK   84  A    between atoms: _202  and  _203
REMARK   85  A    between atoms: _203  and  _204
REMARK   86  A    between atoms: _213  and  _215
REMARK   87  A    between atoms: _215  and  _216
REMARK   88  A    between atoms: _215  and  _218
REMARK   89  A    between atoms: _221  and  _223
REMARK   90  A    between atoms: _223  and  _224
REMARK   91  A    between atoms: _223  and  _226
REMARK   92  A    between atoms: _229  and  _231
REMARK   93  A    between atoms: _231  and  _232
REMARK   94  A    between atoms: _231  and  _234
REMARK   95  A    between atoms: _234  and  _235
REMARK   96  A    between atoms: _235  and  _236
REMARK   97  A    between atoms: _238  and  _240
REMARK   98  A    between atoms: _240  and  _241
REMARK   99  A    between atoms: _244  and  _246
REMARK  100  A    between atoms: _246  and  _247
REMARK  101  A    between atoms: _246  and  _249
REMARK  102  A    between atoms: _249  and  _250
REMARK  103  A    between atoms: _252  and  _254
REMARK  104  A    between atoms: _254  and  _255
REMARK  105  A    between atoms: _258  and  _260
REMARK  106  A    between atoms: _260  and  _261
REMARK  107  A    between atoms: _260  and  _263
REMARK  108  A    between atoms: _263  and  _264
REMARK  109  A    between atoms: _264  and  _265
REMARK  110  A    between atoms: _270  and  _272
REMARK  111  A    between atoms: _272  and  _273
REMARK  112  A    between atoms: _272  and  _275
REMARK  113  A    between atoms: _278  and  _280
REMARK  114  A    between atoms: _280  and  _281
REMARK  115  A    between atoms: _280  and  _283
REMARK  116  A    between atoms: _283  and  _284
REMARK  117  A    between atoms: _284  and  _285
REMARK  118  A    between atoms: _285  and  _286
REMARK  119  A    between atoms: _286  and  _287
REMARK  120  A    between atoms: _291  and  _293
REMARK  121  A    between atoms: _293  and  _294
REMARK  122  A    between atoms: _293  and  _296
REMARK  123  A    between atoms: _296  and  _297
REMARK  124  A    between atoms: _299  and  _301
REMARK  125  A    between atoms: _301  and  _302
REMARK  126  A    between atoms: _305  and  _307
REMARK  127  A    between atoms: _307  and  _308
REMARK  128  A    between atoms: _307  and  _310
REMARK  129  A    between atoms: _310  and  _311
REMARK  130  A    between atoms: _314  and  _316
REMARK  131  A    between atoms: _316  and  _317
REMARK  132  A    between atoms: _316  and  _319
REMARK  133  A    between atoms: _319  and  _320
REMARK  134  A    between atoms: _320  and  _321
REMARK  135  A    between atoms: _321  and  _322
REMARK  136  A    between atoms: _331  and  _333
REMARK  137  A    between atoms: _333  and  _334
REMARK  138  A    between atoms: _333  and  _336
REMARK  139  A    between atoms: _336  and  _337
REMARK  140  A    between atoms: _340  and  _342
REMARK  141  A    between atoms: _342  and  _343
REMARK  142  A    between atoms: _342  and  _345
REMARK  143  A    between atoms: _345  and  _346
REMARK  144  A    between atoms: _351  and  _353
REMARK  145  A    between atoms: _353  and  _354
REMARK  146  A    between atoms: _353  and  _356
REMARK  147  A    between atoms: _356  and  _357
REMARK  148  A    between atoms: _360  and  _362
REMARK  149  A    between atoms: _362  and  _363
REMARK  150  A    between atoms: _362  and  _365
REMARK  151  A    between atoms: _365  and  _366
REMARK  152  A    between atoms: _369  and  _371
REMARK  153  A    between atoms: _371  and  _372
REMARK  154  A    between atoms: _371  and  _374
REMARK  155  A    between atoms: _374  and  _375
REMARK  156  A    between atoms: _377  and  _379
REMARK  157  A    between atoms: _379  and  _380
REMARK  158  A    between atoms: _379  and  _382
REMARK  159  A    between atoms: _382  and  _383
REMARK  160  A    between atoms: _383  and  _384
REMARK  161  A    between atoms: _384  and  _385
REMARK  162  A    between atoms: _394  and  _396
REMARK  163  A    between atoms: _396  and  _397
REMARK  164  A    between atoms: _401  and  _402
REMARK  165  A    between atoms: _407  and  _409
REMARK  166  A    between atoms: _409  and  _410
REMARK  167  A    between atoms: _409  and  _412
REMARK  168  A    between atoms: _412  and  _413
REMARK  169  A    between atoms: _413  and  _414
REMARK  170  A    between atoms: _416  and  _418
REMARK  171  A    between atoms: _418  and  _419
REMARK  172  A    between atoms: _418  and  _421
REMARK  173  A    between atoms: _421  and  _422
REMARK  174  A    between atoms: _425  and  _427
REMARK  175  A    between atoms: _427  and  _428
REMARK  176  A    between atoms: _427  and  _430
REMARK  177  A    between atoms: _430  and  _431
REMARK  178  A    between atoms: _434  and  _436
REMARK  179  A    between atoms: _436  and  _437
REMARK  180  A    between atoms: _436  and  _439
REMARK  181  A    between atoms: _439  and  _440
REMARK  182  A    between atoms: _440  and  _441
REMARK  183  A    between atoms: _445  and  _446
REMARK  184  A    between atoms: _451  and  _453
REMARK  185  A    between atoms: _453  and  _454
REMARK  186  A    between atoms: _453  and  _456
REMARK  187  A    between atoms: _456  and  _457
REMARK  188  A    between atoms: _457  and  _458
REMARK  189  A    between atoms: _461  and  _463
REMARK  190  A    between atoms: _463  and  _464
REMARK  191  A    between atoms: _463  and  _466
REMARK  192  A    between atoms: _466  and  _467
REMARK  193  A    between atoms: _470  and  _472
REMARK  194  A    between atoms: _472  and  _473
REMARK  195  A    between atoms: _472  and  _475
REMARK  196  A    between atoms: _478  and  _480
REMARK  197  A    between atoms: _480  and  _481
REMARK  198  A    between atoms: _480  and  _483
REMARK  199  A    between atoms: _483  and  _484
REMARK  200  A    between atoms: _484  and  _485
REMARK  201  A    between atoms: _485  and  _486
REMARK  202  A    between atoms: _486  and  _487
REMARK  203  A    between atoms: _491  and  _493
REMARK  204  A    between atoms: _493  and  _494
REMARK  205  A    between atoms: _493  and  _496
REMARK  206  A    between atoms: _496  and  _497
REMARK  207  A    between atoms: _497  and  _498
REMARK  208  A    between atoms: _501  and  _503
REMARK  209  A    between atoms: _503  and  _504
REMARK  210  A    between atoms: _503  and  _506
REMARK  211  A    between atoms: _506  and  _507
REMARK  212  A    between atoms: _509  and  _511
REMARK  213  A    between atoms: _511  and  _512
REMARK  214  A    between atoms: _511  and  _514
REMARK  215  A    between atoms: _514  and  _515
REMARK  216  A    between atoms: _515  and  _516
REMARK  217  A    between atoms: _516  and  _517
REMARK  218  A    between atoms: _526  and  _528
REMARK  219  A    between atoms: _528  and  _529
REMARK  220  A    between atoms: _528  and  _531
REMARK  221  A    between atoms: _531  and  _532
REMARK  222  A    between atoms: _535  and  _537
REMARK  223  A    between atoms: _537  and  _538
REMARK  224  A    between atoms: _537  and  _540
REMARK  225  A    between atoms: _540  and  _541
REMARK  226  A    between atoms: _546  and  _548
REMARK  227  A    between atoms: _548  and  _549
REMARK  228  A    between atoms: _548  and  _551
REMARK  229  A    between atoms: _551  and  _552
REMARK  230  A    between atoms: _552  and  _553
REMARK  231  A    between atoms: _553  and  _554
REMARK  232  A    between atoms: _563  and  _565
REMARK  233  A    between atoms: _565  and  _566
REMARK  234  A    between atoms: _565  and  _568
REMARK  235  A    between atoms: _568  and  _569
REMARK  236  A    between atoms: _572  and  _574
REMARK  237  A    between atoms: _574  and  _575
REMARK  238  A    between atoms: _574  and  _577
REMARK  239  A    between atoms: _577  and  _578
REMARK  240  A    between atoms: _581  and  _583
REMARK  241  A    between atoms: _583  and  _584
REMARK  242  A    between atoms: _583  and  _586
REMARK  243  A    between atoms: _586  and  _587
REMARK                            x       y       z     vdW  Elec       q    Type
REMARK                         _______ _______ _______ _____ _____    ______ ____
ROOT
ATOM      1  CA  ARG A   3    -141.016  31.230 127.233  0.00  0.00    +0.149 C 
ENDROOT
BRANCH   1   4
ATOM      2  C   HIS A   2    -141.546  29.393 128.708  0.00  0.00    +0.241 C 
ATOM      3  O   HIS A   2    -142.516  30.029 129.148  0.00  0.00    -0.273 OA
ATOM      4  N   ARG A   3    -140.745  29.896 127.766  0.00  0.00    -0.297 N 
ATOM      5  H   ARG A   3    -139.936  29.344 127.415  0.00  0.00    +0.150 HD
BRANCH   2   6
ATOM      6  CA  HIS A   2    -141.233  27.997 129.255  0.00  0.00    +0.155 C 
BRANCH   6   8
ATOM      7  C   ASP A   1    -141.320  26.836 127.082  0.00  0.00    +0.239 C 
ATOM      8  N   HIS A   2    -140.736  27.044 128.262  0.00  0.00    -0.297 N 
ATOM      9  H   HIS A   2    -139.880  26.499 128.489  0.00  0.00    +0.150 HD
ATOM     10  O   ASP A   1    -142.358  27.413 126.715  0.00  0.00    -0.274 OA
BRANCH   7  11
ATOM     11  CA  ASP A   1    -140.628  25.819 126.170  0.00  0.00    +0.156 C 
BRANCH  11  12
ATOM     12  N   ASP A   1    -141.342  24.556 126.131  0.00  0.00    -0.238 NA
ATOM     13  H   ASP A   1    -142.283  24.522 125.690  0.00  0.00    +0.142 HD
ENDBRANCH  11  12
BRANCH  11  14
ATOM     14  CB  ASP A   1    -140.546  26.385 124.743  0.00  0.00    +0.140 C 
BRANCH  14  15
ATOM     15  CG  ASP A   1    -139.620  27.595 124.627  0.00  0.00    +0.367 C 
ATOM     16  OD2 ASP A   1    -139.391  28.279 125.638  0.00  0.00    -0.246 OA
ATOM     17  OD1 ASP A   1    -139.131  27.866 123.507  0.00  0.00    -0.246 OA
ENDBRANCH  14  15
ENDBRANCH  11  14
ENDBRANCH   7  11
ENDBRANCH   6   8
BRANCH   6  18
ATOM     18  CB  HIS A   2    -140.240  28.109 130.442  0.00  0.00    +0.076 C 
BRANCH  18  19
ATOM     19  CG  HIS A   2    -138.913  28.715 130.100  0.00  0.00    +0.082 A 
ATOM     20  CD2 HIS A   2    -138.220  29.728 130.684  0.00  0.00    +0.115 A 
ATOM     21  NE2 HIS A   2    -137.050  29.878 129.985  0.00  0.00    -0.221 NA
ATOM     22  CE1 HIS A   2    -137.015  28.990 129.008  0.00  0.00    +0.199 A 
ATOM     23  ND1 HIS A   2    -138.130  28.273 129.057  0.00  0.00    -0.227 NA
ENDBRANCH  18  19
ENDBRANCH   6  18
ENDBRANCH   2   6
ENDBRANCH   1   4
BRANCH   1  24
ATOM     24  C   ARG A   3    -142.223  31.249 126.309  0.00  0.00    +0.241 C 
ATOM     25  O   ARG A   3    -142.853  32.286 126.160  0.00  0.00    -0.273 OA
ATOM     26  N   ILE A   4    -142.539  30.121 125.669  0.00  0.00    -0.298 N 
ATOM     27  H   ILE A   4    -141.937  29.278 125.756  0.00  0.00    +0.150 HD
BRANCH  26  28
ATOM     28  CA  ILE A   4    -143.752  30.090 124.839  0.00  0.00    +0.137 C 
BRANCH  28  29
ATOM     29  CB  ILE A   4    -143.787  28.822 123.934  0.00  0.00    +0.026 C 
ATOM     30  CG2 ILE A   4    -145.149  28.722 123.226  0.00  0.00    +0.002 C 
BRANCH  29  31
ATOM     31  CG1 ILE A   4    -142.628  28.872 122.926  0.00  0.00    +0.002 C 
ATOM     32  CD1 ILE A   4    -142.634  30.145 122.003  0.00  0.00    +0.000 C 
ENDBRANCH  29  31
ENDBRANCH  28  29
BRANCH  28  33
ATOM     33  C   ILE A   4    -144.959  30.114 125.797  0.00  0.00    +0.227 C 
ATOM     34  O   ILE A   4    -145.939  30.844 125.587  0.00  0.00    -0.286 OA
ENDBRANCH  28  33
ENDBRANCH  26  28
ENDBRANCH   1  24
BRANCH   1  35
ATOM     35  CB  ARG A   3    -139.790  31.820 126.524  0.00  0.00    +0.033 C 
BRANCH  35  36
ATOM     36  CG  ARG A   3    -138.578  32.001 127.450  0.00  0.00    +0.045 C 
BRANCH  36  37
ATOM     37  CD  ARG A   3    -137.497  32.970 126.892  0.00  0.00    +0.174 C 
BRANCH  37  38
ATOM     38  NE  ARG A   3    -136.304  32.788 127.713  0.00  0.00    -0.265 N 
ATOM     39  CZ  ARG A   3    -136.189  33.248 128.953  0.00  0.00    +0.342 C 
ATOM     40  NH2 ARG A   3    -135.136  32.881 129.694  0.00  0.00    -0.292 N 
ATOM     41 HH21 ARG A   3    -135.036  33.235 130.667  0.00  0.00    +0.255 HD
ATOM     42 HH22 ARG A   3    -134.418  32.242 129.297  0.00  0.00    +0.255 HD
ATOM     43  NH1 ARG A   3    -137.166  33.963 129.500  0.00  0.00    -0.292 N 
ATOM     44 HH11 ARG A   3    -137.068  34.320 130.472  0.00  0.00    +0.255 HD
ATOM     45 HH12 ARG A   3    -138.029  34.166 128.956  0.00  0.00    +0.255 HD
ATOM     46  HE  ARG A   3    -135.500  32.270 127.304  0.00  0.00    +0.259 HD
ENDBRANCH  37  38
ENDBRANCH  36  37
ENDBRANCH  35  36
ENDBRANCH   1  35
TORSDOF 18
REMARK  Name = ../refined-set-2016/2pqc/2pqc_pocket.pdb
REMARK  243 active torsions:
REMARK  status: ('A' for Active; 'I' for Inactive)
REMARK    1  A    between atoms: _1  and  _3
REMARK    2  A    between atoms: _3  and  _4
REMARK    3  A    between atoms: _3  and  _6
REMARK    4  A    between atoms: _6  and  _7
REMARK    5  A    between atoms: _10  and  _12
REMARK    6  A    between atoms: _12  and  _13
REMARK    7  A    between atoms: _12  and  _15
REMARK    8  A    between atoms: _15  and  _16
REMARK    9  A    between atoms: _16  and  _17
REMARK   10  A    between atoms: _17  and  _18
REMARK   11  A    between atoms: _18  and  _19
REMARK   12  A    between atoms: _23  and  _25
REMARK   13  A    between atoms: _25  and  _26
REMARK   14  A    between atoms: _25  and  _28
REMARK   15  A    between atoms: _28  and  _29
REMARK   16  A    between atoms: _31  and  _33
REMARK   17  A    between atoms: _33  and  _34
REMARK   18  A    between atoms: _33  and  _36
REMARK   19  A    between atoms: _36  and  _37
REMARK   20  A    between atoms: _40  and  _42
REMARK   21  A    between atoms: _42  and  _43
REMARK   22  A    between atoms: _42  and  _45
REMARK   23  A    between atoms: _45  and  _46
REMARK   24  A    between atoms: _48  and  _50
REMARK   25  A    between atoms: _50  and  _51
REMARK   26  A    between atoms: _50  and  _53
REMARK   27  A    between atoms: _53  and  _54
REMARK   28  A    between atoms: _59  and  _61
REMARK   29  A    between atoms: _61  and  _62
REMARK   30  A    between atoms: _61  and  _64
REMARK   31  A    between atoms: _64  and  _65
REMARK   32  A    between atoms: _65  and  _66
REMARK   33  A    between atoms: _66  and  _67
REMARK   34  A    between atoms: _76  and  _78
REMARK   35  A    between atoms: _78  and  _79
REMARK   36  A    between atoms: _78  and  _81
REMARK   37  A    between atoms: _81  and  _82
REMARK   38  A    between atoms: _85  and  _87
REMARK   39  A    between atoms: _87  and  _88
REMARK   40  A    between atoms: _87  and  _90
REMARK   41  A    between atoms: _90  and  _91
REMARK   42  A    between atoms: _96  and  _98
REMARK   43  A    between atoms: _98  and  _99
REMARK   44  A    between atoms: _102  and  _104
REMARK   45  A    between atoms: _104  and  _105
REMARK   46  A    between atoms: _108  and  _110
REMARK   47  A    between atoms: _110  and  _111
REMARK   48  A    between atoms: _110  and  _113
REMARK   49  A    between atoms: _113  and  _114
REMARK   50  A    between atoms: _117  and  _119
REMARK   51  A    between atoms: _119  and  _120
REMARK   52  A    between atoms: _122  and  _124
REMARK   53  A    between atoms: _124  and  _125
REMARK   54  A    between atoms: _124  and  _127
REMARK   55  A    between atoms: _129  and  _131
REMARK   56  A    between atoms: _131  and  _132
REMARK   57  A    between atoms: _131  and  _134
REMARK   58  A    between atoms: _134  and  _135
REMARK   59  A    between atoms: _135  and  _136
REMARK   60  A    between atoms: _136  and  _137
REMARK   61  A    between atoms: _146  and  _148
REMARK   62  A    between atoms: _148  and  _149
REMARK   63  A    between atoms: _148  and  _151
REMARK   64  A    between atoms: _151  and  _152
REMARK   65  A    between atoms: _155  and  _157
REMARK   66  A    between atoms: _157  and  _158
REMARK   67  A    between atoms: _157  and  _160
REMARK   68  A    between atoms: _160  and  _161
REMARK   69  A    between atoms: _163  and  _165
REMARK   70  A    between atoms: _165  and  _166
REMARK   71  A    between atoms: _165  and  _168
REMARK   72  A    between atoms: _168  and  _169
REMARK   73  A    between atoms: _172  and  _174
REMARK   74  A    between atoms: _174  and  _175
REMARK   75  A    between atoms: _174  and  _177
REMARK   76  A    between atoms: _177  and  _178
REMARK   77  A    between atoms: _178  and  _179
REMARK   78  A    between atoms: _179  and  _180
REMARK   79  A    between atoms: _190  and  _191
REMARK   80  A    between atoms: _196  and  _198
REMARK   81  A    between atoms: _198  and  _199
REMARK   82  A    between atoms: _198  and  _201
REMARK   83  A    between atoms: _201  and  _202
REMARK   84  A    between atoms: _202  and  _203
REMARK   85  A    between atoms: _203  and  _204
REMARK   86  A    between atoms: _213  and  _215
REMARK   87  A    between atoms: _215  and  _216
REMARK   88  A    between atoms: _215  and  _218
REMARK   89  A    between atoms: _221  and  _223
REMARK   90  A    between atoms: _223  and  _224
REMARK   91  A    between atoms: _223  and  _226
REMARK   92  A    between atoms: _229  and  _231
REMARK   93  A    between atoms: _231  and  _232
REMARK   94  A    between atoms: _231  and  _234
REMARK   95  A    between atoms: _234  and  _235
REMARK   96  A    between atoms: _235  and  _236
REMARK   97  A    between atoms: _238  and  _240
REMARK   98  A    between atoms: _240  and  _241
REMARK   99  A    between atoms: _244  and  _246
REMARK  100  A    between atoms: _246  and  _247
REMARK  101  A    between atoms: _246  and  _249
REMARK  102  A    between atoms: _249  and  _250
REMARK  103  A    between atoms: _252  and  _254
REMARK  104  A    between atoms: _254  and  _255
REMARK  105  A    between atoms: _258  and  _260
REMARK  106  A    between atoms: _260  and  _261
REMARK  107  A    between atoms: _260  and  _263
REMARK  108  A    between atoms: _263  and  _264
REMARK  109  A    between atoms: _264  and  _265
REMARK  110  A    between atoms: _270  and  _272
REMARK  111  A    between atoms: _272  and  _273
REMARK  112  A    between atoms: _272  and  _275
REMARK  113  A    between atoms: _278  and  _280
REMARK  114  A    between atoms: _280  and  _281
REMARK  115  A    between atoms: _280  and  _283
REMARK  116  A    between atoms: _283  and  _284
REMARK  117  A    between atoms: _284  and  _285
REMARK  118  A    between atoms: _285  and  _286
REMARK  119  A    between atoms: _286  and  _287
REMARK  120  A    between atoms: _291  and  _293
REMARK  121  A    between atoms: _293  and  _294
REMARK  122  A    between atoms: _293  and  _296
REMARK  123  A    between atoms: _296  and  _297
REMARK  124  A    between atoms: _299  and  _301
REMARK  125  A    between atoms: _301  and  _302
REMARK  126  A    between atoms: _305  and  _307
REMARK  127  A    between atoms: _307  and  _308
REMARK  128  A    between atoms: _307  and  _310
REMARK  129  A    between atoms: _310  and  _311
REMARK  130  A    between atoms: _314  and  _316
REMARK  131  A    between atoms: _316  and  _317
REMARK  132  A    between atoms: _316  and  _319
REMARK  133  A    between atoms: _319  and  _320
REMARK  134  A    between atoms: _320  and  _321
REMARK  135  A    between atoms: _321  and  _322
REMARK  136  A    between atoms: _331  and  _333
REMARK  137  A    between atoms: _333  and  _334
REMARK  138  A    between atoms: _333  and  _336
REMARK  139  A    between atoms: _336  and  _337
REMARK  140  A    between atoms: _340  and  _342
REMARK  141  A    between atoms: _342  and  _343
REMARK  142  A    between atoms: _342  and  _345
REMARK  143  A    between atoms: _345  and  _346
REMARK  144  A    between atoms: _351  and  _353
REMARK  145  A    between atoms: _353  and  _354
REMARK  146  A    between atoms: _353  and  _356
REMARK  147  A    between atoms: _356  and  _357
REMARK  148  A    between atoms: _360  and  _362
REMARK  149  A    between atoms: _362  and  _363
REMARK  150  A    between atoms: _362  and  _365
REMARK  151  A    between atoms: _365  and  _366
REMARK  152  A    between atoms: _369  and  _371
REMARK  153  A    between atoms: _371  and  _372
REMARK  154  A    between atoms: _371  and  _374
REMARK  155  A    between atoms: _374  and  _375
REMARK  156  A    between atoms: _377  and  _379
REMARK  157  A    between atoms: _379  and  _380
REMARK  158  A    between atoms: _379  and  _382
REMARK  159  A    between atoms: _382  and  _383
REMARK  160  A    between atoms: _383  and  _384
REMARK  161  A    between atoms: _384  and  _385
REMARK  162  A    between atoms: _394  and  _396
REMARK  163  A    between atoms: _396  and  _397
REMARK  164  A    between atoms: _401  and  _402
REMARK  165  A    between atoms: _407  and  _409
REMARK  166  A    between atoms: _409  and  _410
REMARK  167  A    between atoms: _409  and  _412
REMARK  168  A    between atoms: _412  and  _413
REMARK  169  A    between atoms: _413  and  _414
REMARK  170  A    between atoms: _416  and  _418
REMARK  171  A    between atoms: _418  and  _419
REMARK  172  A    between atoms: _418  and  _421
REMARK  173  A    between atoms: _421  and  _422
REMARK  174  A    between atoms: _425  and  _427
REMARK  175  A    between atoms: _427  and  _428
REMARK  176  A    between atoms: _427  and  _430
REMARK  177  A    between atoms: _430  and  _431
REMARK  178  A    between atoms: _434  and  _436
REMARK  179  A    between atoms: _436  and  _437
REMARK  180  A    between atoms: _436  and  _439
REMARK  181  A    between atoms: _439  and  _440
REMARK  182  A    between atoms: _440  and  _441
REMARK  183  A    between atoms: _445  and  _446
REMARK  184  A    between atoms: _451  and  _453
REMARK  185  A    between atoms: _453  and  _454
REMARK  186  A    between atoms: _453  and  _456
REMARK  187  A    between atoms: _456  and  _457
REMARK  188  A    between atoms: _457  and  _458
REMARK  189  A    between atoms: _461  and  _463
REMARK  190  A    between atoms: _463  and  _464
REMARK  191  A    between atoms: _463  and  _466
REMARK  192  A    between atoms: _466  and  _467
REMARK  193  A    between atoms: _470  and  _472
REMARK  194  A    between atoms: _472  and  _473
REMARK  195  A    between atoms: _472  and  _475
REMARK  196  A    between atoms: _478  and  _480
REMARK  197  A    between atoms: _480  and  _481
REMARK  198  A    between atoms: _480  and  _483
REMARK  199  A    between atoms: _483  and  _484
REMARK  200  A    between atoms: _484  and  _485
REMARK  201  A    between atoms: _485  and  _486
REMARK  202  A    between atoms: _486  and  _487
REMARK  203  A    between atoms: _491  and  _493
REMARK  204  A    between atoms: _493  and  _494
REMARK  205  A    between atoms: _493  and  _496
REMARK  206  A    between atoms: _496  and  _497
REMARK  207  A    between atoms: _497  and  _498
REMARK  208  A    between atoms: _501  and  _503
REMARK  209  A    between atoms: _503  and  _504
REMARK  210  A    between atoms: _503  and  _506
REMARK  211  A    between atoms: _506  and  _507
REMARK  212  A    between atoms: _509  and  _511
REMARK  213  A    between atoms: _511  and  _512
REMARK  214  A    between atoms: _511  and  _514
REMARK  215  A    between atoms: _514  and  _515
REMARK  216  A    between atoms: _515  and  _516
REMARK  217  A    between atoms: _516  and  _517
REMARK  218  A    between atoms: _526  and  _528
REMARK  219  A    between atoms: _528  and  _529
REMARK  220  A    between atoms: _528  and  _531
REMARK  221  A    between atoms: _531  and  _532
REMARK  222  A    between atoms: _535  and  _537
REMARK  223  A    between atoms: _537  and  _538
REMARK  224  A    between atoms: _537  and  _540
REMARK  225  A    between atoms: _540  and  _541
REMARK  226  A    between atoms: _546  and  _548
REMARK  227  A    between atoms: _548  and  _549
REMARK  228  A    between atoms: _548  and  _551
REMARK  229  A    between atoms: _551  and  _552
REMARK  230  A    between atoms: _552  and  _553
REMARK  231  A    between atoms: _553  and  _554
REMARK  232  A    between atoms: _563  and  _565
REMARK  233  A    between atoms: _565  and  _566
REMARK  234  A    between atoms: _565  and  _568
REMARK  235  A    between atoms: _568  and  _569
REMARK  236  A    between atoms: _572  and  _574
REMARK  237  A    between atoms: _574  and  _575
REMARK  238  A    between atoms: _574  and  _577
REMARK  239  A    between atoms: _577  and  _578
REMARK  240  A    between atoms: _581  and  _583
REMARK  241  A    between atoms: _583  and  _584
REMARK  242  A    between atoms: _583  and  _586
REMARK  243  A    between atoms: _586  and  _587
REMARK                            x       y       z     vdW  Elec       q    Type
REMARK                         _______ _______ _______ _____ _____    ______ ____
ROOT
ATOM      1  C   THR A   1    -136.390  27.545 135.005  0.00  0.00    +0.241 C 
ATOM      2  O   THR A   1    -135.194  27.561 135.350  0.00  0.00    -0.274 OA
ATOM      3  N   SER A   2    -137.080  28.661 134.750  0.00  0.00    -0.296 N 
ATOM      4  H   SER A   2    -138.081  28.587 134.478  0.00  0.00    +0.150 HD
ENDROOT
BRANCH   1   5
ATOM      5  CA  THR A   1    -137.153  26.220 134.868  0.00  0.00    +0.172 C 
BRANCH   5   6
ATOM      6  N   THR A   1    -138.566  26.391 135.229  0.00  0.00    -0.236 NA
ATOM      7  H   THR A   1    -139.310  26.294 134.509  0.00  0.00    +0.142 HD
ENDBRANCH   5   6
BRANCH   5   8
ATOM      8  CB  THR A   1    -136.981  25.664 133.434  0.00  0.00    +0.135 C 
ATOM      9  CG2 THR A   1    -137.630  24.289 133.316  0.00  0.00    +0.034 C 
BRANCH   8  10
ATOM     10  OG1 THR A   1    -137.590  26.547 132.486  0.00  0.00    -0.383 OA
ATOM     11  HG1 THR A   1    -138.555  26.631 132.688  0.00  0.00    +0.210 HD
ENDBRANCH   8  10
ENDBRANCH   5   8
ENDBRANCH   1   5
BRANCH   3  12
ATOM     12  CA  SER A   2    -136.456  29.998 134.845  0.00  0.00    +0.166 C 
BRANCH  12  13
ATOM     13  CB  SER A   2    -137.220  31.038 135.670  0.00  0.00    +0.229 C 
ATOM     14  OG  SER A   2    -136.658  32.074 136.012  0.00  0.00    -0.286 OA
ENDBRANCH  12  13
BRANCH  12  15
ATOM     15  C   SER A   2    -136.303  30.625 133.452  0.00  0.00    +0.165 C 
BRANCH  15  16
ATOM     16  O   SER A   2    -137.591  31.072 132.980  0.00  0.00    -0.380 OA
ATOM     17  H   SER A   2    -137.490  31.476 132.082  0.00  0.00    +0.211 HD
ENDBRANCH  15  16
ENDBRANCH  12  15
ENDBRANCH   3  12
TORSDOF 8
REMARK  Name = ../refined-set-2016/2pqc/2pqc_pocket.pdb
REMARK  243 active torsions:
REMARK  status: ('A' for Active; 'I' for Inactive)
REMARK    1  A    between atoms: _1  and  _3
REMARK    2  A    between atoms: _3  and  _4
REMARK    3  A    between atoms: _3  and  _6
REMARK    4  A    between atoms: _6  and  _7
REMARK    5  A    between atoms: _10  and  _12
REMARK    6  A    between atoms: _12  and  _13
REMARK    7  A    between atoms: _12  and  _15
REMARK    8  A    between atoms: _15  and  _16
REMARK    9  A    between atoms: _16  and  _17
REMARK   10  A    between atoms: _17  and  _18
REMARK   11  A    between atoms: _18  and  _19
REMARK   12  A    between atoms: _23  and  _25
REMARK   13  A    between atoms: _25  and  _26
REMARK   14  A    between atoms: _25  and  _28
REMARK   15  A    between atoms: _28  and  _29
REMARK   16  A    between atoms: _31  and  _33
REMARK   17  A    between atoms: _33  and  _34
REMARK   18  A    between atoms: _33  and  _36
REMARK   19  A    between atoms: _36  and  _37
REMARK   20  A    between atoms: _40  and  _42
REMARK   21  A    between atoms: _42  and  _43
REMARK   22  A    between atoms: _42  and  _45
REMARK   23  A    between atoms: _45  and  _46
REMARK   24  A    between atoms: _48  and  _50
REMARK   25  A    between atoms: _50  and  _51
REMARK   26  A    between atoms: _50  and  _53
REMARK   27  A    between atoms: _53  and  _54
REMARK   28  A    between atoms: _59  and  _61
REMARK   29  A    between atoms: _61  and  _62
REMARK   30  A    between atoms: _61  and  _64
REMARK   31  A    between atoms: _64  and  _65
REMARK   32  A    between atoms: _65  and  _66
REMARK   33  A    between atoms: _66  and  _67
REMARK   34  A    between atoms: _76  and  _78
REMARK   35  A    between atoms: _78  and  _79
REMARK   36  A    between atoms: _78  and  _81
REMARK   37  A    between atoms: _81  and  _82
REMARK   38  A    between atoms: _85  and  _87
REMARK   39  A    between atoms: _87  and  _88
REMARK   40  A    between atoms: _87  and  _90
REMARK   41  A    between atoms: _90  and  _91
REMARK   42  A    between atoms: _96  and  _98
REMARK   43  A    between atoms: _98  and  _99
REMARK   44  A    between atoms: _102  and  _104
REMARK   45  A    between atoms: _104  and  _105
REMARK   46  A    between atoms: _108  and  _110
REMARK   47  A    between atoms: _110  and  _111
REMARK   48  A    between atoms: _110  and  _113
REMARK   49  A    between atoms: _113  and  _114
REMARK   50  A    between atoms: _117  and  _119
REMARK   51  A    between atoms: _119  and  _120
REMARK   52  A    between atoms: _122  and  _124
REMARK   53  A    between atoms: _124  and  _125
REMARK   54  A    between atoms: _124  and  _127
REMARK   55  A    between atoms: _129  and  _131
REMARK   56  A    between atoms: _131  and  _132
REMARK   57  A    between atoms: _131  and  _134
REMARK   58  A    between atoms: _134  and  _135
REMARK   59  A    between atoms: _135  and  _136
REMARK   60  A    between atoms: _136  and  _137
REMARK   61  A    between atoms: _146  and  _148
REMARK   62  A    between atoms: _148  and  _149
REMARK   63  A    between atoms: _148  and  _151
REMARK   64  A    between atoms: _151  and  _152
REMARK   65  A    between atoms: _155  and  _157
REMARK   66  A    between atoms: _157  and  _158
REMARK   67  A    between atoms: _157  and  _160
REMARK   68  A    between atoms: _160  and  _161
REMARK   69  A    between atoms: _163  and  _165
REMARK   70  A    between atoms: _165  and  _166
REMARK   71  A    between atoms: _165  and  _168
REMARK   72  A    between atoms: _168  and  _169
REMARK   73  A    between atoms: _172  and  _174
REMARK   74  A    between atoms: _174  and  _175
REMARK   75  A    between atoms: _174  and  _177
REMARK   76  A    between atoms: _177  and  _178
REMARK   77  A    between atoms: _178  and  _179
REMARK   78  A    between atoms: _179  and  _180
REMARK   79  A    between atoms: _190  and  _191
REMARK   80  A    between atoms: _196  and  _198
REMARK   81  A    between atoms: _198  and  _199
REMARK   82  A    between atoms: _198  and  _201
REMARK   83  A    between atoms: _201  and  _202
REMARK   84  A    between atoms: _202  and  _203
REMARK   85  A    between atoms: _203  and  _204
REMARK   86  A    between atoms: _213  and  _215
REMARK   87  A    between atoms: _215  and  _216
REMARK   88  A    between atoms: _215  and  _218
REMARK   89  A    between atoms: _221  and  _223
REMARK   90  A    between atoms: _223  and  _224
REMARK   91  A    between atoms: _223  and  _226
REMARK   92  A    between atoms: _229  and  _231
REMARK   93  A    between atoms: _231  and  _232
REMARK   94  A    between atoms: _231  and  _234
REMARK   95  A    between atoms: _234  and  _235
REMARK   96  A    between atoms: _235  and  _236
REMARK   97  A    between atoms: _238  and  _240
REMARK   98  A    between atoms: _240  and  _241
REMARK   99  A    between atoms: _244  and  _246
REMARK  100  A    between atoms: _246  and  _247
REMARK  101  A    between atoms: _246  and  _249
REMARK  102  A    between atoms: _249  and  _250
REMARK  103  A    between atoms: _252  and  _254
REMARK  104  A    between atoms: _254  and  _255
REMARK  105  A    between atoms: _258  and  _260
REMARK  106  A    between atoms: _260  and  _261
REMARK  107  A    between atoms: _260  and  _263
REMARK  108  A    between atoms: _263  and  _264
REMARK  109  A    between atoms: _264  and  _265
REMARK  110  A    between atoms: _270  and  _272
REMARK  111  A    between atoms: _272  and  _273
REMARK  112  A    between atoms: _272  and  _275
REMARK  113  A    between atoms: _278  and  _280
REMARK  114  A    between atoms: _280  and  _281
REMARK  115  A    between atoms: _280  and  _283
REMARK  116  A    between atoms: _283  and  _284
REMARK  117  A    between atoms: _284  and  _285
REMARK  118  A    between atoms: _285  and  _286
REMARK  119  A    between atoms: _286  and  _287
REMARK  120  A    between atoms: _291  and  _293
REMARK  121  A    between atoms: _293  and  _294
REMARK  122  A    between atoms: _293  and  _296
REMARK  123  A    between atoms: _296  and  _297
REMARK  124  A    between atoms: _299  and  _301
REMARK  125  A    between atoms: _301  and  _302
REMARK  126  A    between atoms: _305  and  _307
REMARK  127  A    between atoms: _307  and  _308
REMARK  128  A    between atoms: _307  and  _310
REMARK  129  A    between atoms: _310  and  _311
REMARK  130  A    between atoms: _314  and  _316
REMARK  131  A    between atoms: _316  and  _317
REMARK  132  A    between atoms: _316  and  _319
REMARK  133  A    between atoms: _319  and  _320
REMARK  134  A    between atoms: _320  and  _321
REMARK  135  A    between atoms: _321  and  _322
REMARK  136  A    between atoms: _331  and  _333
REMARK  137  A    between atoms: _333  and  _334
REMARK  138  A    between atoms: _333  and  _336
REMARK  139  A    between atoms: _336  and  _337
REMARK  140  A    between atoms: _340  and  _342
REMARK  141  A    between atoms: _342  and  _343
REMARK  142  A    between atoms: _342  and  _345
REMARK  143  A    between atoms: _345  and  _346
REMARK  144  A    between atoms: _351  and  _353
REMARK  145  A    between atoms: _353  and  _354
REMARK  146  A    between atoms: _353  and  _356
REMARK  147  A    between atoms: _356  and  _357
REMARK  148  A    between atoms: _360  and  _362
REMARK  149  A    between atoms: _362  and  _363
REMARK  150  A    between atoms: _362  and  _365
REMARK  151  A    between atoms: _365  and  _366
REMARK  152  A    between atoms: _369  and  _371
REMARK  153  A    between atoms: _371  and  _372
REMARK  154  A    between atoms: _371  and  _374
REMARK  155  A    between atoms: _374  and  _375
REMARK  156  A    between atoms: _377  and  _379
REMARK  157  A    between atoms: _379  and  _380
REMARK  158  A    between atoms: _379  and  _382
REMARK  159  A    between atoms: _382  and  _383
REMARK  160  A    between atoms: _383  and  _384
REMARK  161  A    between atoms: _384  and  _385
REMARK  162  A    between atoms: _394  and  _396
REMARK  163  A    between atoms: _396  and  _397
REMARK  164  A    between atoms: _401  and  _402
REMARK  165  A    between atoms: _407  and  _409
REMARK  166  A    between atoms: _409  and  _410
REMARK  167  A    between atoms: _409  and  _412
REMARK  168  A    between atoms: _412  and  _413
REMARK  169  A    between atoms: _413  and  _414
REMARK  170  A    between atoms: _416  and  _418
REMARK  171  A    between atoms: _418  and  _419
REMARK  172  A    between atoms: _418  and  _421
REMARK  173  A    between atoms: _421  and  _422
REMARK  174  A    between atoms: _425  and  _427
REMARK  175  A    between atoms: _427  and  _428
REMARK  176  A    between atoms: _427  and  _430
REMARK  177  A    between atoms: _430  and  _431
REMARK  178  A    between atoms: _434  and  _436
REMARK  179  A    between atoms: _436  and  _437
REMARK  180  A    between atoms: _436  and  _439
REMARK  181  A    between atoms: _439  and  _440
REMARK  182  A    between atoms: _440  and  _441
REMARK  183  A    between atoms: _445  and  _446
REMARK  184  A    between atoms: _451  and  _453
REMARK  185  A    between atoms: _453  and  _454
REMARK  186  A    between atoms: _453  and  _456
REMARK  187  A    between atoms: _456  and  _457
REMARK  188  A    between atoms: _457  and  _458
REMARK  189  A    between atoms: _461  and  _463
REMARK  190  A    between atoms: _463  and  _464
REMARK  191  A    between atoms: _463  and  _466
REMARK  192  A    between atoms: _466  and  _467
REMARK  193  A    between atoms: _470  and  _472
REMARK  194  A    between atoms: _472  and  _473
REMARK  195  A    between atoms: _472  and  _475
REMARK  196  A    between atoms: _478  and  _480
REMARK  197  A    between atoms: _480  and  _481
REMARK  198  A    between atoms: _480  and  _483
REMARK  199  A    between atoms: _483  and  _484
REMARK  200  A    between atoms: _484  and  _485
REMARK  201  A    between atoms: _485  and  _486
REMARK  202  A    between atoms: _486  and  _487
REMARK  203  A    between atoms: _491  and  _493
REMARK  204  A    between atoms: _493  and  _494
REMARK  205  A    between atoms: _493  and  _496
REMARK  206  A    between atoms: _496  and  _497
REMARK  207  A    between atoms: _497  and  _498
REMARK  208  A    between atoms: _501  and  _503
REMARK  209  A    between atoms: _503  and  _504
REMARK  210  A    between atoms: _503  and  _506
REMARK  211  A    between atoms: _506  and  _507
REMARK  212  A    between atoms: _509  and  _511
REMARK  213  A    between atoms: _511  and  _512
REMARK  214  A    between atoms: _511  and  _514
REMARK  215  A    between atoms: _514  and  _515
REMARK  216  A    between atoms: _515  and  _516
REMARK  217  A    between atoms: _516  and  _517
REMARK  218  A    between atoms: _526  and  _528
REMARK  219  A    between atoms: _528  and  _529
REMARK  220  A    between atoms: _528  and  _531
REMARK  221  A    between atoms: _531  and  _532
REMARK  222  A    between atoms: _535  and  _537
REMARK  223  A    between atoms: _537  and  _538
REMARK  224  A    between atoms: _537  and  _540
REMARK  225  A    between atoms: _540  and  _541
REMARK  226  A    between atoms: _546  and  _548
REMARK  227  A    between atoms: _548  and  _549
REMARK  228  A    between atoms: _548  and  _551
REMARK  229  A    between atoms: _551  and  _552
REMARK  230  A    between atoms: _552  and  _553
REMARK  231  A    between atoms: _553  and  _554
REMARK  232  A    between atoms: _563  and  _565
REMARK  233  A    between atoms: _565  and  _566
REMARK  234  A    between atoms: _565  and  _568
REMARK  235  A    between atoms: _568  and  _569
REMARK  236  A    between atoms: _572  and  _574
REMARK  237  A    between atoms: _574  and  _575
REMARK  238  A    between atoms: _574  and  _577
REMARK  239  A    between atoms: _577  and  _578
REMARK  240  A    between atoms: _581  and  _583
REMARK  241  A    between atoms: _583  and  _584
REMARK  242  A    between atoms: _583  and  _586
REMARK  243  A    between atoms: _586  and  _587
REMARK                            x       y       z     vdW  Elec       q    Type
REMARK                         _______ _______ _______ _____ _____    ______ ____
ROOT
ATOM      1  O   HOH     1    -138.833  25.143 129.160  0.00  0.00    +0.000 OA
ENDROOT
TORSDOF 0
REMARK  Name = ../refined-set-2016/2pqc/2pqc_pocket.pdb
REMARK  243 active torsions:
REMARK  status: ('A' for Active; 'I' for Inactive)
REMARK    1  A    between atoms: _1  and  _3
REMARK    2  A    between atoms: _3  and  _4
REMARK    3  A    between atoms: _3  and  _6
REMARK    4  A    between atoms: _6  and  _7
REMARK    5  A    between atoms: _10  and  _12
REMARK    6  A    between atoms: _12  and  _13
REMARK    7  A    between atoms: _12  and  _15
REMARK    8  A    between atoms: _15  and  _16
REMARK    9  A    between atoms: _16  and  _17
REMARK   10  A    between atoms: _17  and  _18
REMARK   11  A    between atoms: _18  and  _19
REMARK   12  A    between atoms: _23  and  _25
REMARK   13  A    between atoms: _25  and  _26
REMARK   14  A    between atoms: _25  and  _28
REMARK   15  A    between atoms: _28  and  _29
REMARK   16  A    between atoms: _31  and  _33
REMARK   17  A    between atoms: _33  and  _34
REMARK   18  A    between atoms: _33  and  _36
REMARK   19  A    between atoms: _36  and  _37
REMARK   20  A    between atoms: _40  and  _42
REMARK   21  A    between atoms: _42  and  _43
REMARK   22  A    between atoms: _42  and  _45
REMARK   23  A    between atoms: _45  and  _46
REMARK   24  A    between atoms: _48  and  _50
REMARK   25  A    between atoms: _50  and  _51
REMARK   26  A    between atoms: _50  and  _53
REMARK   27  A    between atoms: _53  and  _54
REMARK   28  A    between atoms: _59  and  _61
REMARK   29  A    between atoms: _61  and  _62
REMARK   30  A    between atoms: _61  and  _64
REMARK   31  A    between atoms: _64  and  _65
REMARK   32  A    between atoms: _65  and  _66
REMARK   33  A    between atoms: _66  and  _67
REMARK   34  A    between atoms: _76  and  _78
REMARK   35  A    between atoms: _78  and  _79
REMARK   36  A    between atoms: _78  and  _81
REMARK   37  A    between atoms: _81  and  _82
REMARK   38  A    between atoms: _85  and  _87
REMARK   39  A    between atoms: _87  and  _88
REMARK   40  A    between atoms: _87  and  _90
REMARK   41  A    between atoms: _90  and  _91
REMARK   42  A    between atoms: _96  and  _98
REMARK   43  A    between atoms: _98  and  _99
REMARK   44  A    between atoms: _102  and  _104
REMARK   45  A    between atoms: _104  and  _105
REMARK   46  A    between atoms: _108  and  _110
REMARK   47  A    between atoms: _110  and  _111
REMARK   48  A    between atoms: _110  and  _113
REMARK   49  A    between atoms: _113  and  _114
REMARK   50  A    between atoms: _117  and  _119
REMARK   51  A    between atoms: _119  and  _120
REMARK   52  A    between atoms: _122  and  _124
REMARK   53  A    between atoms: _124  and  _125
REMARK   54  A    between atoms: _124  and  _127
REMARK   55  A    between atoms: _129  and  _131
REMARK   56  A    between atoms: _131  and  _132
REMARK   57  A    between atoms: _131  and  _134
REMARK   58  A    between atoms: _134  and  _135
REMARK   59  A    between atoms: _135  and  _136
REMARK   60  A    between atoms: _136  and  _137
REMARK   61  A    between atoms: _146  and  _148
REMARK   62  A    between atoms: _148  and  _149
REMARK   63  A    between atoms: _148  and  _151
REMARK   64  A    between atoms: _151  and  _152
REMARK   65  A    between atoms: _155  and  _157
REMARK   66  A    between atoms: _157  and  _158
REMARK   67  A    between atoms: _157  and  _160
REMARK   68  A    between atoms: _160  and  _161
REMARK   69  A    between atoms: _163  and  _165
REMARK   70  A    between atoms: _165  and  _166
REMARK   71  A    between atoms: _165  and  _168
REMARK   72  A    between atoms: _168  and  _169
REMARK   73  A    between atoms: _172  and  _174
REMARK   74  A    between atoms: _174  and  _175
REMARK   75  A    between atoms: _174  and  _177
REMARK   76  A    between atoms: _177  and  _178
REMARK   77  A    between atoms: _178  and  _179
REMARK   78  A    between atoms: _179  and  _180
REMARK   79  A    between atoms: _190  and  _191
REMARK   80  A    between atoms: _196  and  _198
REMARK   81  A    between atoms: _198  and  _199
REMARK   82  A    between atoms: _198  and  _201
REMARK   83  A    between atoms: _201  and  _202
REMARK   84  A    between atoms: _202  and  _203
REMARK   85  A    between atoms: _203  and  _204
REMARK   86  A    between atoms: _213  and  _215
REMARK   87  A    between atoms: _215  and  _216
REMARK   88  A    between atoms: _215  and  _218
REMARK   89  A    between atoms: _221  and  _223
REMARK   90  A    between atoms: _223  and  _224
REMARK   91  A    between atoms: _223  and  _226
REMARK   92  A    between atoms: _229  and  _231
REMARK   93  A    between atoms: _231  and  _232
REMARK   94  A    between atoms: _231  and  _234
REMARK   95  A    between atoms: _234  and  _235
REMARK   96  A    between atoms: _235  and  _236
REMARK   97  A    between atoms: _238  and  _240
REMARK   98  A    between atoms: _240  and  _241
REMARK   99  A    between atoms: _244  and  _246
REMARK  100  A    between atoms: _246  and  _247
REMARK  101  A    between atoms: _246  and  _249
REMARK  102  A    between atoms: _249  and  _250
REMARK  103  A    between atoms: _252  and  _254
REMARK  104  A    between atoms: _254  and  _255
REMARK  105  A    between atoms: _258  and  _260
REMARK  106  A    between atoms: _260  and  _261
REMARK  107  A    between atoms: _260  and  _263
REMARK  108  A    between atoms: _263  and  _264
REMARK  109  A    between atoms: _264  and  _265
REMARK  110  A    between atoms: _270  and  _272
REMARK  111  A    between atoms: _272  and  _273
REMARK  112  A    between atoms: _272  and  _275
REMARK  113  A    between atoms: _278  and  _280
REMARK  114  A    between atoms: _280  and  _281
REMARK  115  A    between atoms: _280  and  _283
REMARK  116  A    between atoms: _283  and  _284
REMARK  117  A    between atoms: _284  and  _285
REMARK  118  A    between atoms: _285  and  _286
REMARK  119  A    between atoms: _286  and  _287
REMARK  120  A    between atoms: _291  and  _293
REMARK  121  A    between atoms: _293  and  _294
REMARK  122  A    between atoms: _293  and  _296
REMARK  123  A    between atoms: _296  and  _297
REMARK  124  A    between atoms: _299  and  _301
REMARK  125  A    between atoms: _301  and  _302
REMARK  126  A    between atoms: _305  and  _307
REMARK  127  A    between atoms: _307  and  _308
REMARK  128  A    between atoms: _307  and  _310
REMARK  129  A    between atoms: _310  and  _311
REMARK  130  A    between atoms: _314  and  _316
REMARK  131  A    between atoms: _316  and  _317
REMARK  132  A    between atoms: _316  and  _319
REMARK  133  A    between atoms: _319  and  _320
REMARK  134  A    between atoms: _320  and  _321
REMARK  135  A    between atoms: _321  and  _322
REMARK  136  A    between atoms: _331  and  _333
REMARK  137  A    between atoms: _333  and  _334
REMARK  138  A    between atoms: _333  and  _336
REMARK  139  A    between atoms: _336  and  _337
REMARK  140  A    between atoms: _340  and  _342
REMARK  141  A    between atoms: _342  and  _343
REMARK  142  A    between atoms: _342  and  _345
REMARK  143  A    between atoms: _345  and  _346
REMARK  144  A    between atoms: _351  and  _353
REMARK  145  A    between atoms: _353  and  _354
REMARK  146  A    between atoms: _353  and  _356
REMARK  147  A    between atoms: _356  and  _357
REMARK  148  A    between atoms: _360  and  _362
REMARK  149  A    between atoms: _362  and  _363
REMARK  150  A    between atoms: _362  and  _365
REMARK  151  A    between atoms: _365  and  _366
REMARK  152  A    between atoms: _369  and  _371
REMARK  153  A    between atoms: _371  and  _372
REMARK  154  A    between atoms: _371  and  _374
REMARK  155  A    between atoms: _374  and  _375
REMARK  156  A    between atoms: _377  and  _379
REMARK  157  A    between atoms: _379  and  _380
REMARK  158  A    between atoms: _379  and  _382
REMARK  159  A    between atoms: _382  and  _383
REMARK  160  A    between atoms: _383  and  _384
REMARK  161  A    between atoms: _384  and  _385
REMARK  162  A    between atoms: _394  and  _396
REMARK  163  A    between atoms: _396  and  _397
REMARK  164  A    between atoms: _401  and  _402
REMARK  165  A    between atoms: _407  and  _409
REMARK  166  A    between atoms: _409  and  _410
REMARK  167  A    between atoms: _409  and  _412
REMARK  168  A    between atoms: _412  and  _413
REMARK  169  A    between atoms: _413  and  _414
REMARK  170  A    between atoms: _416  and  _418
REMARK  171  A    between atoms: _418  and  _419
REMARK  172  A    between atoms: _418  and  _421
REMARK  173  A    between atoms: _421  and  _422
REMARK  174  A    between atoms: _425  and  _427
REMARK  175  A    between atoms: _427  and  _428
REMARK  176  A    between atoms: _427  and  _430
REMARK  177  A    between atoms: _430  and  _431
REMARK  178  A    between atoms: _434  and  _436
REMARK  179  A    between atoms: _436  and  _437
REMARK  180  A    between atoms: _436  and  _439
REMARK  181  A    between atoms: _439  and  _440
REMARK  182  A    between atoms: _440  and  _441
REMARK  183  A    between atoms: _445  and  _446
REMARK  184  A    between atoms: _451  and  _453
REMARK  185  A    between atoms: _453  and  _454
REMARK  186  A    between atoms: _453  and  _456
REMARK  187  A    between atoms: _456  and  _457
REMARK  188  A    between atoms: _457  and  _458
REMARK  189  A    between atoms: _461  and  _463
REMARK  190  A    between atoms: _463  and  _464
REMARK  191  A    between atoms: _463  and  _466
REMARK  192  A    between atoms: _466  and  _467
REMARK  193  A    between atoms: _470  and  _472
REMARK  194  A    between atoms: _472  and  _473
REMARK  195  A    between atoms: _472  and  _475
REMARK  196  A    between atoms: _478  and  _480
REMARK  197  A    between atoms: _480  and  _481
REMARK  198  A    between atoms: _480  and  _483
REMARK  199  A    between atoms: _483  and  _484
REMARK  200  A    between atoms: _484  and  _485
REMARK  201  A    between atoms: _485  and  _486
REMARK  202  A    between atoms: _486  and  _487
REMARK  203  A    between atoms: _491  and  _493
REMARK  204  A    between atoms: _493  and  _494
REMARK  205  A    between atoms: _493  and  _496
REMARK  206  A    between atoms: _496  and  _497
REMARK  207  A    between atoms: _497  and  _498
REMARK  208  A    between atoms: _501  and  _503
REMARK  209  A    between atoms: _503  and  _504
REMARK  210  A    between atoms: _503  and  _506
REMARK  211  A    between atoms: _506  and  _507
REMARK  212  A    between atoms: _509  and  _511
REMARK  213  A    between atoms: _511  and  _512
REMARK  214  A    between atoms: _511  and  _514
REMARK  215  A    between atoms: _514  and  _515
REMARK  216  A    between atoms: _515  and  _516
REMARK  217  A    between atoms: _516  and  _517
REMARK  218  A    between atoms: _526  and  _528
REMARK  219  A    between atoms: _528  and  _529
REMARK  220  A    between atoms: _528  and  _531
REMARK  221  A    between atoms: _531  and  _532
REMARK  222  A    between atoms: _535  and  _537
REMARK  223  A    between atoms: _537  and  _538
REMARK  224  A    between atoms: _537  and  _540
REMARK  225  A    between atoms: _540  and  _541
REMARK  226  A    between atoms: _546  and  _548
REMARK  227  A    between atoms: _548  and  _549
REMARK  228  A    between atoms: _548  and  _551
REMARK  229  A    between atoms: _551  and  _552
REMARK  230  A    between atoms: _552  and  _553
REMARK  231  A    between atoms: _553  and  _554
REMARK  232  A    between atoms: _563  and  _565
REMARK  233  A    between atoms: _565  and  _566
REMARK  234  A    between atoms: _565  and  _568
REMARK  235  A    between atoms: _568  and  _569
REMARK  236  A    between atoms: _572  and  _574
REMARK  237  A    between atoms: _574  and  _575
REMARK  238  A    between atoms: _574  and  _577
REMARK  239  A    between atoms: _577  and  _578
REMARK  240  A    between atoms: _581  and  _583
REMARK  241  A    between atoms: _583  and  _584
REMARK  242  A    between atoms: _583  and  _586
REMARK  243  A    between atoms: _586  and  _587
REMARK                            x       y       z     vdW  Elec       q    Type
REMARK                         _______ _______ _______ _____ _____    ______ ____
ROOT
ATOM      1  O   HOH     1    -138.081  36.583 127.880  0.00  0.00    +0.000 OA
ENDROOT
TORSDOF 0
REMARK  Name = ../refined-set-2016/2pqc/2pqc_pocket.pdb
REMARK  243 active torsions:
REMARK  status: ('A' for Active; 'I' for Inactive)
REMARK    1  A    between atoms: _1  and  _3
REMARK    2  A    between atoms: _3  and  _4
REMARK    3  A    between atoms: _3  and  _6
REMARK    4  A    between atoms: _6  and  _7
REMARK    5  A    between atoms: _10  and  _12
REMARK    6  A    between atoms: _12  and  _13
REMARK    7  A    between atoms: _12  and  _15
REMARK    8  A    between atoms: _15  and  _16
REMARK    9  A    between atoms: _16  and  _17
REMARK   10  A    between atoms: _17  and  _18
REMARK   11  A    between atoms: _18  and  _19
REMARK   12  A    between atoms: _23  and  _25
REMARK   13  A    between atoms: _25  and  _26
REMARK   14  A    between atoms: _25  and  _28
REMARK   15  A    between atoms: _28  and  _29
REMARK   16  A    between atoms: _31  and  _33
REMARK   17  A    between atoms: _33  and  _34
REMARK   18  A    between atoms: _33  and  _36
REMARK   19  A    between atoms: _36  and  _37
REMARK   20  A    between atoms: _40  and  _42
REMARK   21  A    between atoms: _42  and  _43
REMARK   22  A    between atoms: _42  and  _45
REMARK   23  A    between atoms: _45  and  _46
REMARK   24  A    between atoms: _48  and  _50
REMARK   25  A    between atoms: _50  and  _51
REMARK   26  A    between atoms: _50  and  _53
REMARK   27  A    between atoms: _53  and  _54
REMARK   28  A    between atoms: _59  and  _61
REMARK   29  A    between atoms: _61  and  _62
REMARK   30  A    between atoms: _61  and  _64
REMARK   31  A    between atoms: _64  and  _65
REMARK   32  A    between atoms: _65  and  _66
REMARK   33  A    between atoms: _66  and  _67
REMARK   34  A    between atoms: _76  and  _78
REMARK   35  A    between atoms: _78  and  _79
REMARK   36  A    between atoms: _78  and  _81
REMARK   37  A    between atoms: _81  and  _82
REMARK   38  A    between atoms: _85  and  _87
REMARK   39  A    between atoms: _87  and  _88
REMARK   40  A    between atoms: _87  and  _90
REMARK   41  A    between atoms: _90  and  _91
REMARK   42  A    between atoms: _96  and  _98
REMARK   43  A    between atoms: _98  and  _99
REMARK   44  A    between atoms: _102  and  _104
REMARK   45  A    between atoms: _104  and  _105
REMARK   46  A    between atoms: _108  and  _110
REMARK   47  A    between atoms: _110  and  _111
REMARK   48  A    between atoms: _110  and  _113
REMARK   49  A    between atoms: _113  and  _114
REMARK   50  A    between atoms: _117  and  _119
REMARK   51  A    between atoms: _119  and  _120
REMARK   52  A    between atoms: _122  and  _124
REMARK   53  A    between atoms: _124  and  _125
REMARK   54  A    between atoms: _124  and  _127
REMARK   55  A    between atoms: _129  and  _131
REMARK   56  A    between atoms: _131  and  _132
REMARK   57  A    between atoms: _131  and  _134
REMARK   58  A    between atoms: _134  and  _135
REMARK   59  A    between atoms: _135  and  _136
REMARK   60  A    between atoms: _136  and  _137
REMARK   61  A    between atoms: _146  and  _148
REMARK   62  A    between atoms: _148  and  _149
REMARK   63  A    between atoms: _148  and  _151
REMARK   64  A    between atoms: _151  and  _152
REMARK   65  A    between atoms: _155  and  _157
REMARK   66  A    between atoms: _157  and  _158
REMARK   67  A    between atoms: _157  and  _160
REMARK   68  A    between atoms: _160  and  _161
REMARK   69  A    between atoms: _163  and  _165
REMARK   70  A    between atoms: _165  and  _166
REMARK   71  A    between atoms: _165  and  _168
REMARK   72  A    between atoms: _168  and  _169
REMARK   73  A    between atoms: _172  and  _174
REMARK   74  A    between atoms: _174  and  _175
REMARK   75  A    between atoms: _174  and  _177
REMARK   76  A    between atoms: _177  and  _178
REMARK   77  A    between atoms: _178  and  _179
REMARK   78  A    between atoms: _179  and  _180
REMARK   79  A    between atoms: _190  and  _191
REMARK   80  A    between atoms: _196  and  _198
REMARK   81  A    between atoms: _198  and  _199
REMARK   82  A    between atoms: _198  and  _201
REMARK   83  A    between atoms: _201  and  _202
REMARK   84  A    between atoms: _202  and  _203
REMARK   85  A    between atoms: _203  and  _204
REMARK   86  A    between atoms: _213  and  _215
REMARK   87  A    between atoms: _215  and  _216
REMARK   88  A    between atoms: _215  and  _218
REMARK   89  A    between atoms: _221  and  _223
REMARK   90  A    between atoms: _223  and  _224
REMARK   91  A    between atoms: _223  and  _226
REMARK   92  A    between atoms: _229  and  _231
REMARK   93  A    between atoms: _231  and  _232
REMARK   94  A    between atoms: _231  and  _234
REMARK   95  A    between atoms: _234  and  _235
REMARK   96  A    between atoms: _235  and  _236
REMARK   97  A    between atoms: _238  and  _240
REMARK   98  A    between atoms: _240  and  _241
REMARK   99  A    between atoms: _244  and  _246
REMARK  100  A    between atoms: _246  and  _247
REMARK  101  A    between atoms: _246  and  _249
REMARK  102  A    between atoms: _249  and  _250
REMARK  103  A    between atoms: _252  and  _254
REMARK  104  A    between atoms: _254  and  _255
REMARK  105  A    between atoms: _258  and  _260
REMARK  106  A    between atoms: _260  and  _261
REMARK  107  A    between atoms: _260  and  _263
REMARK  108  A    between atoms: _263  and  _264
REMARK  109  A    between atoms: _264  and  _265
REMARK  110  A    between atoms: _270  and  _272
REMARK  111  A    between atoms: _272  and  _273
REMARK  112  A    between atoms: _272  and  _275
REMARK  113  A    between atoms: _278  and  _280
REMARK  114  A    between atoms: _280  and  _281
REMARK  115  A    between atoms: _280  and  _283
REMARK  116  A    between atoms: _283  and  _284
REMARK  117  A    between atoms: _284  and  _285
REMARK  118  A    between atoms: _285  and  _286
REMARK  119  A    between atoms: _286  and  _287
REMARK  120  A    between atoms: _291  and  _293
REMARK  121  A    between atoms: _293  and  _294
REMARK  122  A    between atoms: _293  and  _296
REMARK  123  A    between atoms: _296  and  _297
REMARK  124  A    between atoms: _299  and  _301
REMARK  125  A    between atoms: _301  and  _302
REMARK  126  A    between atoms: _305  and  _307
REMARK  127  A    between atoms: _307  and  _308
REMARK  128  A    between atoms: _307  and  _310
REMARK  129  A    between atoms: _310  and  _311
REMARK  130  A    between atoms: _314  and  _316
REMARK  131  A    between atoms: _316  and  _317
REMARK  132  A    between atoms: _316  and  _319
REMARK  133  A    between atoms: _319  and  _320
REMARK  134  A    between atoms: _320  and  _321
REMARK  135  A    between atoms: _321  and  _322
REMARK  136  A    between atoms: _331  and  _333
REMARK  137  A    between atoms: _333  and  _334
REMARK  138  A    between atoms: _333  and  _336
REMARK  139  A    between atoms: _336  and  _337
REMARK  140  A    between atoms: _340  and  _342
REMARK  141  A    between atoms: _342  and  _343
REMARK  142  A    between atoms: _342  and  _345
REMARK  143  A    between atoms: _345  and  _346
REMARK  144  A    between atoms: _351  and  _353
REMARK  145  A    between atoms: _353  and  _354
REMARK  146  A    between atoms: _353  and  _356
REMARK  147  A    between atoms: _356  and  _357
REMARK  148  A    between atoms: _360  and  _362
REMARK  149  A    between atoms: _362  and  _363
REMARK  150  A    between atoms: _362  and  _365
REMARK  151  A    between atoms: _365  and  _366
REMARK  152  A    between atoms: _369  and  _371
REMARK  153  A    between atoms: _371  and  _372
REMARK  154  A    between atoms: _371  and  _374
REMARK  155  A    between atoms: _374  and  _375
REMARK  156  A    between atoms: _377  and  _379
REMARK  157  A    between atoms: _379  and  _380
REMARK  158  A    between atoms: _379  and  _382
REMARK  159  A    between atoms: _382  and  _383
REMARK  160  A    between atoms: _383  and  _384
REMARK  161  A    between atoms: _384  and  _385
REMARK  162  A    between atoms: _394  and  _396
REMARK  163  A    between atoms: _396  and  _397
REMARK  164  A    between atoms: _401  and  _402
REMARK  165  A    between atoms: _407  and  _409
REMARK  166  A    between atoms: _409  and  _410
REMARK  167  A    between atoms: _409  and  _412
REMARK  168  A    between atoms: _412  and  _413
REMARK  169  A    between atoms: _413  and  _414
REMARK  170  A    between atoms: _416  and  _418
REMARK  171  A    between atoms: _418  and  _419
REMARK  172  A    between atoms: _418  and  _421
REMARK  173  A    between atoms: _421  and  _422
REMARK  174  A    between atoms: _425  and  _427
REMARK  175  A    between atoms: _427  and  _428
REMARK  176  A    between atoms: _427  and  _430
REMARK  177  A    between atoms: _430  and  _431
REMARK  178  A    between atoms: _434  and  _436
REMARK  179  A    between atoms: _436  and  _437
REMARK  180  A    between atoms: _436  and  _439
REMARK  181  A    between atoms: _439  and  _440
REMARK  182  A    between atoms: _440  and  _441
REMARK  183  A    between atoms: _445  and  _446
REMARK  184  A    between atoms: _451  and  _453
REMARK  185  A    between atoms: _453  and  _454
REMARK  186  A    between atoms: _453  and  _456
REMARK  187  A    between atoms: _456  and  _457
REMARK  188  A    between atoms: _457  and  _458
REMARK  189  A    between atoms: _461  and  _463
REMARK  190  A    between atoms: _463  and  _464
REMARK  191  A    between atoms: _463  and  _466
REMARK  192  A    between atoms: _466  and  _467
REMARK  193  A    between atoms: _470  and  _472
REMARK  194  A    between atoms: _472  and  _473
REMARK  195  A    between atoms: _472  and  _475
REMARK  196  A    between atoms: _478  and  _480
REMARK  197  A    between atoms: _480  and  _481
REMARK  198  A    between atoms: _480  and  _483
REMARK  199  A    between atoms: _483  and  _484
REMARK  200  A    between atoms: _484  and  _485
REMARK  201  A    between atoms: _485  and  _486
REMARK  202  A    between atoms: _486  and  _487
REMARK  203  A    between atoms: _491  and  _493
REMARK  204  A    between atoms: _493  and  _494
REMARK  205  A    between atoms: _493  and  _496
REMARK  206  A    between atoms: _496  and  _497
REMARK  207  A    between atoms: _497  and  _498
REMARK  208  A    between atoms: _501  and  _503
REMARK  209  A    between atoms: _503  and  _504
REMARK  210  A    between atoms: _503  and  _506
REMARK  211  A    between atoms: _506  and  _507
REMARK  212  A    between atoms: _509  and  _511
REMARK  213  A    between atoms: _511  and  _512
REMARK  214  A    between atoms: _511  and  _514
REMARK  215  A    between atoms: _514  and  _515
REMARK  216  A    between atoms: _515  and  _516
REMARK  217  A    between atoms: _516  and  _517
REMARK  218  A    between atoms: _526  and  _528
REMARK  219  A    between atoms: _528  and  _529
REMARK  220  A    between atoms: _528  and  _531
REMARK  221  A    between atoms: _531  and  _532
REMARK  222  A    between atoms: _535  and  _537
REMARK  223  A    between atoms: _537  and  _538
REMARK  224  A    between atoms: _537  and  _540
REMARK  225  A    between atoms: _540  and  _541
REMARK  226  A    between atoms: _546  and  _548
REMARK  227  A    between atoms: _548  and  _549
REMARK  228  A    between atoms: _548  and  _551
REMARK  229  A    between atoms: _551  and  _552
REMARK  230  A    between atoms: _552  and  _553
REMARK  231  A    between atoms: _553  and  _554
REMARK  232  A    between atoms: _563  and  _565
REMARK  233  A    between atoms: _565  and  _566
REMARK  234  A    between atoms: _565  and  _568
REMARK  235  A    between atoms: _568  and  _569
REMARK  236  A    between atoms: _572  and  _574
REMARK  237  A    between atoms: _574  and  _575
REMARK  238  A    between atoms: _574  and  _577
REMARK  239  A    between atoms: _577  and  _578
REMARK  240  A    between atoms: _581  and  _583
REMARK  241  A    between atoms: _583  and  _584
REMARK  242  A    between atoms: _583  and  _586
REMARK  243  A    between atoms: _586  and  _587
REMARK                            x       y       z     vdW  Elec       q    Type
REMARK                         _______ _______ _______ _____ _____    ______ ____
ROOT
ATOM      1  O   HOH     1    -128.823  32.624 119.881  0.00  0.00    +0.000 OA
ENDROOT
TORSDOF 0
REMARK  Name = ../refined-set-2016/2pqc/2pqc_pocket.pdb
REMARK  243 active torsions:
REMARK  status: ('A' for Active; 'I' for Inactive)
REMARK    1  A    between atoms: _1  and  _3
REMARK    2  A    between atoms: _3  and  _4
REMARK    3  A    between atoms: _3  and  _6
REMARK    4  A    between atoms: _6  and  _7
REMARK    5  A    between atoms: _10  and  _12
REMARK    6  A    between atoms: _12  and  _13
REMARK    7  A    between atoms: _12  and  _15
REMARK    8  A    between atoms: _15  and  _16
REMARK    9  A    between atoms: _16  and  _17
REMARK   10  A    between atoms: _17  and  _18
REMARK   11  A    between atoms: _18  and  _19
REMARK   12  A    between atoms: _23  and  _25
REMARK   13  A    between atoms: _25  and  _26
REMARK   14  A    between atoms: _25  and  _28
REMARK   15  A    between atoms: _28  and  _29
REMARK   16  A    between atoms: _31  and  _33
REMARK   17  A    between atoms: _33  and  _34
REMARK   18  A    between atoms: _33  and  _36
REMARK   19  A    between atoms: _36  and  _37
REMARK   20  A    between atoms: _40  and  _42
REMARK   21  A    between atoms: _42  and  _43
REMARK   22  A    between atoms: _42  and  _45
REMARK   23  A    between atoms: _45  and  _46
REMARK   24  A    between atoms: _48  and  _50
REMARK   25  A    between atoms: _50  and  _51
REMARK   26  A    between atoms: _50  and  _53
REMARK   27  A    between atoms: _53  and  _54
REMARK   28  A    between atoms: _59  and  _61
REMARK   29  A    between atoms: _61  and  _62
REMARK   30  A    between atoms: _61  and  _64
REMARK   31  A    between atoms: _64  and  _65
REMARK   32  A    between atoms: _65  and  _66
REMARK   33  A    between atoms: _66  and  _67
REMARK   34  A    between atoms: _76  and  _78
REMARK   35  A    between atoms: _78  and  _79
REMARK   36  A    between atoms: _78  and  _81
REMARK   37  A    between atoms: _81  and  _82
REMARK   38  A    between atoms: _85  and  _87
REMARK   39  A    between atoms: _87  and  _88
REMARK   40  A    between atoms: _87  and  _90
REMARK   41  A    between atoms: _90  and  _91
REMARK   42  A    between atoms: _96  and  _98
REMARK   43  A    between atoms: _98  and  _99
REMARK   44  A    between atoms: _102  and  _104
REMARK   45  A    between atoms: _104  and  _105
REMARK   46  A    between atoms: _108  and  _110
REMARK   47  A    between atoms: _110  and  _111
REMARK   48  A    between atoms: _110  and  _113
REMARK   49  A    between atoms: _113  and  _114
REMARK   50  A    between atoms: _117  and  _119
REMARK   51  A    between atoms: _119  and  _120
REMARK   52  A    between atoms: _122  and  _124
REMARK   53  A    between atoms: _124  and  _125
REMARK   54  A    between atoms: _124  and  _127
REMARK   55  A    between atoms: _129  and  _131
REMARK   56  A    between atoms: _131  and  _132
REMARK   57  A    between atoms: _131  and  _134
REMARK   58  A    between atoms: _134  and  _135
REMARK   59  A    between atoms: _135  and  _136
REMARK   60  A    between atoms: _136  and  _137
REMARK   61  A    between atoms: _146  and  _148
REMARK   62  A    between atoms: _148  and  _149
REMARK   63  A    between atoms: _148  and  _151
REMARK   64  A    between atoms: _151  and  _152
REMARK   65  A    between atoms: _155  and  _157
REMARK   66  A    between atoms: _157  and  _158
REMARK   67  A    between atoms: _157  and  _160
REMARK   68  A    between atoms: _160  and  _161
REMARK   69  A    between atoms: _163  and  _165
REMARK   70  A    between atoms: _165  and  _166
REMARK   71  A    between atoms: _165  and  _168
REMARK   72  A    between atoms: _168  and  _169
REMARK   73  A    between atoms: _172  and  _174
REMARK   74  A    between atoms: _174  and  _175
REMARK   75  A    between atoms: _174  and  _177
REMARK   76  A    between atoms: _177  and  _178
REMARK   77  A    between atoms: _178  and  _179
REMARK   78  A    between atoms: _179  and  _180
REMARK   79  A    between atoms: _190  and  _191
REMARK   80  A    between atoms: _196  and  _198
REMARK   81  A    between atoms: _198  and  _199
REMARK   82  A    between atoms: _198  and  _201
REMARK   83  A    between atoms: _201  and  _202
REMARK   84  A    between atoms: _202  and  _203
REMARK   85  A    between atoms: _203  and  _204
REMARK   86  A    between atoms: _213  and  _215
REMARK   87  A    between atoms: _215  and  _216
REMARK   88  A    between atoms: _215  and  _218
REMARK   89  A    between atoms: _221  and  _223
REMARK   90  A    between atoms: _223  and  _224
REMARK   91  A    between atoms: _223  and  _226
REMARK   92  A    between atoms: _229  and  _231
REMARK   93  A    between atoms: _231  and  _232
REMARK   94  A    between atoms: _231  and  _234
REMARK   95  A    between atoms: _234  and  _235
REMARK   96  A    between atoms: _235  and  _236
REMARK   97  A    between atoms: _238  and  _240
REMARK   98  A    between atoms: _240  and  _241
REMARK   99  A    between atoms: _244  and  _246
REMARK  100  A    between atoms: _246  and  _247
REMARK  101  A    between atoms: _246  and  _249
REMARK  102  A    between atoms: _249  and  _250
REMARK  103  A    between atoms: _252  and  _254
REMARK  104  A    between atoms: _254  and  _255
REMARK  105  A    between atoms: _258  and  _260
REMARK  106  A    between atoms: _260  and  _261
REMARK  107  A    between atoms: _260  and  _263
REMARK  108  A    between atoms: _263  and  _264
REMARK  109  A    between atoms: _264  and  _265
REMARK  110  A    between atoms: _270  and  _272
REMARK  111  A    between atoms: _272  and  _273
REMARK  112  A    between atoms: _272  and  _275
REMARK  113  A    between atoms: _278  and  _280
REMARK  114  A    between atoms: _280  and  _281
REMARK  115  A    between atoms: _280  and  _283
REMARK  116  A    between atoms: _283  and  _284
REMARK  117  A    between atoms: _284  and  _285
REMARK  118  A    between atoms: _285  and  _286
REMARK  119  A    between atoms: _286  and  _287
REMARK  120  A    between atoms: _291  and  _293
REMARK  121  A    between atoms: _293  and  _294
REMARK  122  A    between atoms: _293  and  _296
REMARK  123  A    between atoms: _296  and  _297
REMARK  124  A    between atoms: _299  and  _301
REMARK  125  A    between atoms: _301  and  _302
REMARK  126  A    between atoms: _305  and  _307
REMARK  127  A    between atoms: _307  and  _308
REMARK  128  A    between atoms: _307  and  _310
REMARK  129  A    between atoms: _310  and  _311
REMARK  130  A    between atoms: _314  and  _316
REMARK  131  A    between atoms: _316  and  _317
REMARK  132  A    between atoms: _316  and  _319
REMARK  133  A    between atoms: _319  and  _320
REMARK  134  A    between atoms: _320  and  _321
REMARK  135  A    between atoms: _321  and  _322
REMARK  136  A    between atoms: _331  and  _333
REMARK  137  A    between atoms: _333  and  _334
REMARK  138  A    between atoms: _333  and  _336
REMARK  139  A    between atoms: _336  and  _337
REMARK  140  A    between atoms: _340  and  _342
REMARK  141  A    between atoms: _342  and  _343
REMARK  142  A    between atoms: _342  and  _345
REMARK  143  A    between atoms: _345  and  _346
REMARK  144  A    between atoms: _351  and  _353
REMARK  145  A    between atoms: _353  and  _354
REMARK  146  A    between atoms: _353  and  _356
REMARK  147  A    between atoms: _356  and  _357
REMARK  148  A    between atoms: _360  and  _362
REMARK  149  A    between atoms: _362  and  _363
REMARK  150  A    between atoms: _362  and  _365
REMARK  151  A    between atoms: _365  and  _366
REMARK  152  A    between atoms: _369  and  _371
REMARK  153  A    between atoms: _371  and  _372
REMARK  154  A    between atoms: _371  and  _374
REMARK  155  A    between atoms: _374  and  _375
REMARK  156  A    between atoms: _377  and  _379
REMARK  157  A    between atoms: _379  and  _380
REMARK  158  A    between atoms: _379  and  _382
REMARK  159  A    between atoms: _382  and  _383
REMARK  160  A    between atoms: _383  and  _384
REMARK  161  A    between atoms: _384  and  _385
REMARK  162  A    between atoms: _394  and  _396
REMARK  163  A    between atoms: _396  and  _397
REMARK  164  A    between atoms: _401  and  _402
REMARK  165  A    between atoms: _407  and  _409
REMARK  166  A    between atoms: _409  and  _410
REMARK  167  A    between atoms: _409  and  _412
REMARK  168  A    between atoms: _412  and  _413
REMARK  169  A    between atoms: _413  and  _414
REMARK  170  A    between atoms: _416  and  _418
REMARK  171  A    between atoms: _418  and  _419
REMARK  172  A    between atoms: _418  and  _421
REMARK  173  A    between atoms: _421  and  _422
REMARK  174  A    between atoms: _425  and  _427
REMARK  175  A    between atoms: _427  and  _428
REMARK  176  A    between atoms: _427  and  _430
REMARK  177  A    between atoms: _430  and  _431
REMARK  178  A    between atoms: _434  and  _436
REMARK  179  A    between atoms: _436  and  _437
REMARK  180  A    between atoms: _436  and  _439
REMARK  181  A    between atoms: _439  and  _440
REMARK  182  A    between atoms: _440  and  _441
REMARK  183  A    between atoms: _445  and  _446
REMARK  184  A    between atoms: _451  and  _453
REMARK  185  A    between atoms: _453  and  _454
REMARK  186  A    between atoms: _453  and  _456
REMARK  187  A    between atoms: _456  and  _457
REMARK  188  A    between atoms: _457  and  _458
REMARK  189  A    between atoms: _461  and  _463
REMARK  190  A    between atoms: _463  and  _464
REMARK  191  A    between atoms: _463  and  _466
REMARK  192  A    between atoms: _466  and  _467
REMARK  193  A    between atoms: _470  and  _472
REMARK  194  A    between atoms: _472  and  _473
REMARK  195  A    between atoms: _472  and  _475
REMARK  196  A    between atoms: _478  and  _480
REMARK  197  A    between atoms: _480  and  _481
REMARK  198  A    between atoms: _480  and  _483
REMARK  199  A    between atoms: _483  and  _484
REMARK  200  A    between atoms: _484  and  _485
REMARK  201  A    between atoms: _485  and  _486
REMARK  202  A    between atoms: _486  and  _487
REMARK  203  A    between atoms: _491  and  _493
REMARK  204  A    between atoms: _493  and  _494
REMARK  205  A    between atoms: _493  and  _496
REMARK  206  A    between atoms: _496  and  _497
REMARK  207  A    between atoms: _497  and  _498
REMARK  208  A    between atoms: _501  and  _503
REMARK  209  A    between atoms: _503  and  _504
REMARK  210  A    between atoms: _503  and  _506
REMARK  211  A    between atoms: _506  and  _507
REMARK  212  A    between atoms: _509  and  _511
REMARK  213  A    between atoms: _511  and  _512
REMARK  214  A    between atoms: _511  and  _514
REMARK  215  A    between atoms: _514  and  _515
REMARK  216  A    between atoms: _515  and  _516
REMARK  217  A    between atoms: _516  and  _517
REMARK  218  A    between atoms: _526  and  _528
REMARK  219  A    between atoms: _528  and  _529
REMARK  220  A    between atoms: _528  and  _531
REMARK  221  A    between atoms: _531  and  _532
REMARK  222  A    between atoms: _535  and  _537
REMARK  223  A    between atoms: _537  and  _538
REMARK  224  A    between atoms: _537  and  _540
REMARK  225  A    between atoms: _540  and  _541
REMARK  226  A    between atoms: _546  and  _548
REMARK  227  A    between atoms: _548  and  _549
REMARK  228  A    between atoms: _548  and  _551
REMARK  229  A    between atoms: _551  and  _552
REMARK  230  A    between atoms: _552  and  _553
REMARK  231  A    between atoms: _553  and  _554
REMARK  232  A    between atoms: _563  and  _565
REMARK  233  A    between atoms: _565  and  _566
REMARK  234  A    between atoms: _565  and  _568
REMARK  235  A    between atoms: _568  and  _569
REMARK  236  A    between atoms: _572  and  _574
REMARK  237  A    between atoms: _574  and  _575
REMARK  238  A    between atoms: _574  and  _577
REMARK  239  A    between atoms: _577  and  _578
REMARK  240  A    between atoms: _581  and  _583
REMARK  241  A    between atoms: _583  and  _584
REMARK  242  A    between atoms: _583  and  _586
REMARK  243  A    between atoms: _586  and  _587
REMARK                            x       y       z     vdW  Elec       q    Type
REMARK                         _______ _______ _______ _____ _____    ______ ____
ROOT
ATOM      1  O   HOH     1    -129.655  38.920 124.941  0.00  0.00    +0.000 OA
ENDROOT
TORSDOF 0
REMARK  Name = ../refined-set-2016/2pqc/2pqc_pocket.pdb
REMARK  243 active torsions:
REMARK  status: ('A' for Active; 'I' for Inactive)
REMARK    1  A    between atoms: _1  and  _3
REMARK    2  A    between atoms: _3  and  _4
REMARK    3  A    between atoms: _3  and  _6
REMARK    4  A    between atoms: _6  and  _7
REMARK    5  A    between atoms: _10  and  _12
REMARK    6  A    between atoms: _12  and  _13
REMARK    7  A    between atoms: _12  and  _15
REMARK    8  A    between atoms: _15  and  _16
REMARK    9  A    between atoms: _16  and  _17
REMARK   10  A    between atoms: _17  and  _18
REMARK   11  A    between atoms: _18  and  _19
REMARK   12  A    between atoms: _23  and  _25
REMARK   13  A    between atoms: _25  and  _26
REMARK   14  A    between atoms: _25  and  _28
REMARK   15  A    between atoms: _28  and  _29
REMARK   16  A    between atoms: _31  and  _33
REMARK   17  A    between atoms: _33  and  _34
REMARK   18  A    between atoms: _33  and  _36
REMARK   19  A    between atoms: _36  and  _37
REMARK   20  A    between atoms: _40  and  _42
REMARK   21  A    between atoms: _42  and  _43
REMARK   22  A    between atoms: _42  and  _45
REMARK   23  A    between atoms: _45  and  _46
REMARK   24  A    between atoms: _48  and  _50
REMARK   25  A    between atoms: _50  and  _51
REMARK   26  A    between atoms: _50  and  _53
REMARK   27  A    between atoms: _53  and  _54
REMARK   28  A    between atoms: _59  and  _61
REMARK   29  A    between atoms: _61  and  _62
REMARK   30  A    between atoms: _61  and  _64
REMARK   31  A    between atoms: _64  and  _65
REMARK   32  A    between atoms: _65  and  _66
REMARK   33  A    between atoms: _66  and  _67
REMARK   34  A    between atoms: _76  and  _78
REMARK   35  A    between atoms: _78  and  _79
REMARK   36  A    between atoms: _78  and  _81
REMARK   37  A    between atoms: _81  and  _82
REMARK   38  A    between atoms: _85  and  _87
REMARK   39  A    between atoms: _87  and  _88
REMARK   40  A    between atoms: _87  and  _90
REMARK   41  A    between atoms: _90  and  _91
REMARK   42  A    between atoms: _96  and  _98
REMARK   43  A    between atoms: _98  and  _99
REMARK   44  A    between atoms: _102  and  _104
REMARK   45  A    between atoms: _104  and  _105
REMARK   46  A    between atoms: _108  and  _110
REMARK   47  A    between atoms: _110  and  _111
REMARK   48  A    between atoms: _110  and  _113
REMARK   49  A    between atoms: _113  and  _114
REMARK   50  A    between atoms: _117  and  _119
REMARK   51  A    between atoms: _119  and  _120
REMARK   52  A    between atoms: _122  and  _124
REMARK   53  A    between atoms: _124  and  _125
REMARK   54  A    between atoms: _124  and  _127
REMARK   55  A    between atoms: _129  and  _131
REMARK   56  A    between atoms: _131  and  _132
REMARK   57  A    between atoms: _131  and  _134
REMARK   58  A    between atoms: _134  and  _135
REMARK   59  A    between atoms: _135  and  _136
REMARK   60  A    between atoms: _136  and  _137
REMARK   61  A    between atoms: _146  and  _148
REMARK   62  A    between atoms: _148  and  _149
REMARK   63  A    between atoms: _148  and  _151
REMARK   64  A    between atoms: _151  and  _152
REMARK   65  A    between atoms: _155  and  _157
REMARK   66  A    between atoms: _157  and  _158
REMARK   67  A    between atoms: _157  and  _160
REMARK   68  A    between atoms: _160  and  _161
REMARK   69  A    between atoms: _163  and  _165
REMARK   70  A    between atoms: _165  and  _166
REMARK   71  A    between atoms: _165  and  _168
REMARK   72  A    between atoms: _168  and  _169
REMARK   73  A    between atoms: _172  and  _174
REMARK   74  A    between atoms: _174  and  _175
REMARK   75  A    between atoms: _174  and  _177
REMARK   76  A    between atoms: _177  and  _178
REMARK   77  A    between atoms: _178  and  _179
REMARK   78  A    between atoms: _179  and  _180
REMARK   79  A    between atoms: _190  and  _191
REMARK   80  A    between atoms: _196  and  _198
REMARK   81  A    between atoms: _198  and  _199
REMARK   82  A    between atoms: _198  and  _201
REMARK   83  A    between atoms: _201  and  _202
REMARK   84  A    between atoms: _202  and  _203
REMARK   85  A    between atoms: _203  and  _204
REMARK   86  A    between atoms: _213  and  _215
REMARK   87  A    between atoms: _215  and  _216
REMARK   88  A    between atoms: _215  and  _218
REMARK   89  A    between atoms: _221  and  _223
REMARK   90  A    between atoms: _223  and  _224
REMARK   91  A    between atoms: _223  and  _226
REMARK   92  A    between atoms: _229  and  _231
REMARK   93  A    between atoms: _231  and  _232
REMARK   94  A    between atoms: _231  and  _234
REMARK   95  A    between atoms: _234  and  _235
REMARK   96  A    between atoms: _235  and  _236
REMARK   97  A    between atoms: _238  and  _240
REMARK   98  A    between atoms: _240  and  _241
REMARK   99  A    between atoms: _244  and  _246
REMARK  100  A    between atoms: _246  and  _247
REMARK  101  A    between atoms: _246  and  _249
REMARK  102  A    between atoms: _249  and  _250
REMARK  103  A    between atoms: _252  and  _254
REMARK  104  A    between atoms: _254  and  _255
REMARK  105  A    between atoms: _258  and  _260
REMARK  106  A    between atoms: _260  and  _261
REMARK  107  A    between atoms: _260  and  _263
REMARK  108  A    between atoms: _263  and  _264
REMARK  109  A    between atoms: _264  and  _265
REMARK  110  A    between atoms: _270  and  _272
REMARK  111  A    between atoms: _272  and  _273
REMARK  112  A    between atoms: _272  and  _275
REMARK  113  A    between atoms: _278  and  _280
REMARK  114  A    between atoms: _280  and  _281
REMARK  115  A    between atoms: _280  and  _283
REMARK  116  A    between atoms: _283  and  _284
REMARK  117  A    between atoms: _284  and  _285
REMARK  118  A    between atoms: _285  and  _286
REMARK  119  A    between atoms: _286  and  _287
REMARK  120  A    between atoms: _291  and  _293
REMARK  121  A    between atoms: _293  and  _294
REMARK  122  A    between atoms: _293  and  _296
REMARK  123  A    between atoms: _296  and  _297
REMARK  124  A    between atoms: _299  and  _301
REMARK  125  A    between atoms: _301  and  _302
REMARK  126  A    between atoms: _305  and  _307
REMARK  127  A    between atoms: _307  and  _308
REMARK  128  A    between atoms: _307  and  _310
REMARK  129  A    between atoms: _310  and  _311
REMARK  130  A    between atoms: _314  and  _316
REMARK  131  A    between atoms: _316  and  _317
REMARK  132  A    between atoms: _316  and  _319
REMARK  133  A    between atoms: _319  and  _320
REMARK  134  A    between atoms: _320  and  _321
REMARK  135  A    between atoms: _321  and  _322
REMARK  136  A    between atoms: _331  and  _333
REMARK  137  A    between atoms: _333  and  _334
REMARK  138  A    between atoms: _333  and  _336
REMARK  139  A    between atoms: _336  and  _337
REMARK  140  A    between atoms: _340  and  _342
REMARK  141  A    between atoms: _342  and  _343
REMARK  142  A    between atoms: _342  and  _345
REMARK  143  A    between atoms: _345  and  _346
REMARK  144  A    between atoms: _351  and  _353
REMARK  145  A    between atoms: _353  and  _354
REMARK  146  A    between atoms: _353  and  _356
REMARK  147  A    between atoms: _356  and  _357
REMARK  148  A    between atoms: _360  and  _362
REMARK  149  A    between atoms: _362  and  _363
REMARK  150  A    between atoms: _362  and  _365
REMARK  151  A    between atoms: _365  and  _366
REMARK  152  A    between atoms: _369  and  _371
REMARK  153  A    between atoms: _371  and  _372
REMARK  154  A    between atoms: _371  and  _374
REMARK  155  A    between atoms: _374  and  _375
REMARK  156  A    between atoms: _377  and  _379
REMARK  157  A    between atoms: _379  and  _380
REMARK  158  A    between atoms: _379  and  _382
REMARK  159  A    between atoms: _382  and  _383
REMARK  160  A    between atoms: _383  and  _384
REMARK  161  A    between atoms: _384  and  _385
REMARK  162  A    between atoms: _394  and  _396
REMARK  163  A    between atoms: _396  and  _397
REMARK  164  A    between atoms: _401  and  _402
REMARK  165  A    between atoms: _407  and  _409
REMARK  166  A    between atoms: _409  and  _410
REMARK  167  A    between atoms: _409  and  _412
REMARK  168  A    between atoms: _412  and  _413
REMARK  169  A    between atoms: _413  and  _414
REMARK  170  A    between atoms: _416  and  _418
REMARK  171  A    between atoms: _418  and  _419
REMARK  172  A    between atoms: _418  and  _421
REMARK  173  A    between atoms: _421  and  _422
REMARK  174  A    between atoms: _425  and  _427
REMARK  175  A    between atoms: _427  and  _428
REMARK  176  A    between atoms: _427  and  _430
REMARK  177  A    between atoms: _430  and  _431
REMARK  178  A    between atoms: _434  and  _436
REMARK  179  A    between atoms: _436  and  _437
REMARK  180  A    between atoms: _436  and  _439
REMARK  181  A    between atoms: _439  and  _440
REMARK  182  A    between atoms: _440  and  _441
REMARK  183  A    between atoms: _445  and  _446
REMARK  184  A    between atoms: _451  and  _453
REMARK  185  A    between atoms: _453  and  _454
REMARK  186  A    between atoms: _453  and  _456
REMARK  187  A    between atoms: _456  and  _457
REMARK  188  A    between atoms: _457  and  _458
REMARK  189  A    between atoms: _461  and  _463
REMARK  190  A    between atoms: _463  and  _464
REMARK  191  A    between atoms: _463  and  _466
REMARK  192  A    between atoms: _466  and  _467
REMARK  193  A    between atoms: _470  and  _472
REMARK  194  A    between atoms: _472  and  _473
REMARK  195  A    between atoms: _472  and  _475
REMARK  196  A    between atoms: _478  and  _480
REMARK  197  A    between atoms: _480  and  _481
REMARK  198  A    between atoms: _480  and  _483
REMARK  199  A    between atoms: _483  and  _484
REMARK  200  A    between atoms: _484  and  _485
REMARK  201  A    between atoms: _485  and  _486
REMARK  202  A    between atoms: _486  and  _487
REMARK  203  A    between atoms: _491  and  _493
REMARK  204  A    between atoms: _493  and  _494
REMARK  205  A    between atoms: _493  and  _496
REMARK  206  A    between atoms: _496  and  _497
REMARK  207  A    between atoms: _497  and  _498
REMARK  208  A    between atoms: _501  and  _503
REMARK  209  A    between atoms: _503  and  _504
REMARK  210  A    between atoms: _503  and  _506
REMARK  211  A    between atoms: _506  and  _507
REMARK  212  A    between atoms: _509  and  _511
REMARK  213  A    between atoms: _511  and  _512
REMARK  214  A    between atoms: _511  and  _514
REMARK  215  A    between atoms: _514  and  _515
REMARK  216  A    between atoms: _515  and  _516
REMARK  217  A    between atoms: _516  and  _517
REMARK  218  A    between atoms: _526  and  _528
REMARK  219  A    between atoms: _528  and  _529
REMARK  220  A    between atoms: _528  and  _531
REMARK  221  A    between atoms: _531  and  _532
REMARK  222  A    between atoms: _535  and  _537
REMARK  223  A    between atoms: _537  and  _538
REMARK  224  A    between atoms: _537  and  _540
REMARK  225  A    between atoms: _540  and  _541
REMARK  226  A    between atoms: _546  and  _548
REMARK  227  A    between atoms: _548  and  _549
REMARK  228  A    between atoms: _548  and  _551
REMARK  229  A    between atoms: _551  and  _552
REMARK  230  A    between atoms: _552  and  _553
REMARK  231  A    between atoms: _553  and  _554
REMARK  232  A    between atoms: _563  and  _565
REMARK  233  A    between atoms: _565  and  _566
REMARK  234  A    between atoms: _565  and  _568
REMARK  235  A    between atoms: _568  and  _569
REMARK  236  A    between atoms: _572  and  _574
REMARK  237  A    between atoms: _574  and  _575
REMARK  238  A    between atoms: _574  and  _577
REMARK  239  A    between atoms: _577  and  _578
REMARK  240  A    between atoms: _581  and  _583
REMARK  241  A    between atoms: _583  and  _584
REMARK  242  A    between atoms: _583  and  _586
REMARK  243  A    between atoms: _586  and  _587
REMARK                            x       y       z     vdW  Elec       q    Type
REMARK                         _______ _______ _______ _____ _____    ______ ____
ROOT
ATOM      1  O   HOH     1    -139.893  35.885 125.434  0.00  0.00    +0.000 OA
ENDROOT
TORSDOF 0
REMARK  Name = ../refined-set-2016/2pqc/2pqc_pocket.pdb
REMARK  243 active torsions:
REMARK  status: ('A' for Active; 'I' for Inactive)
REMARK    1  A    between atoms: _1  and  _3
REMARK    2  A    between atoms: _3  and  _4
REMARK    3  A    between atoms: _3  and  _6
REMARK    4  A    between atoms: _6  and  _7
REMARK    5  A    between atoms: _10  and  _12
REMARK    6  A    between atoms: _12  and  _13
REMARK    7  A    between atoms: _12  and  _15
REMARK    8  A    between atoms: _15  and  _16
REMARK    9  A    between atoms: _16  and  _17
REMARK   10  A    between atoms: _17  and  _18
REMARK   11  A    between atoms: _18  and  _19
REMARK   12  A    between atoms: _23  and  _25
REMARK   13  A    between atoms: _25  and  _26
REMARK   14  A    between atoms: _25  and  _28
REMARK   15  A    between atoms: _28  and  _29
REMARK   16  A    between atoms: _31  and  _33
REMARK   17  A    between atoms: _33  and  _34
REMARK   18  A    between atoms: _33  and  _36
REMARK   19  A    between atoms: _36  and  _37
REMARK   20  A    between atoms: _40  and  _42
REMARK   21  A    between atoms: _42  and  _43
REMARK   22  A    between atoms: _42  and  _45
REMARK   23  A    between atoms: _45  and  _46
REMARK   24  A    between atoms: _48  and  _50
REMARK   25  A    between atoms: _50  and  _51
REMARK   26  A    between atoms: _50  and  _53
REMARK   27  A    between atoms: _53  and  _54
REMARK   28  A    between atoms: _59  and  _61
REMARK   29  A    between atoms: _61  and  _62
REMARK   30  A    between atoms: _61  and  _64
REMARK   31  A    between atoms: _64  and  _65
REMARK   32  A    between atoms: _65  and  _66
REMARK   33  A    between atoms: _66  and  _67
REMARK   34  A    between atoms: _76  and  _78
REMARK   35  A    between atoms: _78  and  _79
REMARK   36  A    between atoms: _78  and  _81
REMARK   37  A    between atoms: _81  and  _82
REMARK   38  A    between atoms: _85  and  _87
REMARK   39  A    between atoms: _87  and  _88
REMARK   40  A    between atoms: _87  and  _90
REMARK   41  A    between atoms: _90  and  _91
REMARK   42  A    between atoms: _96  and  _98
REMARK   43  A    between atoms: _98  and  _99
REMARK   44  A    between atoms: _102  and  _104
REMARK   45  A    between atoms: _104  and  _105
REMARK   46  A    between atoms: _108  and  _110
REMARK   47  A    between atoms: _110  and  _111
REMARK   48  A    between atoms: _110  and  _113
REMARK   49  A    between atoms: _113  and  _114
REMARK   50  A    between atoms: _117  and  _119
REMARK   51  A    between atoms: _119  and  _120
REMARK   52  A    between atoms: _122  and  _124
REMARK   53  A    between atoms: _124  and  _125
REMARK   54  A    between atoms: _124  and  _127
REMARK   55  A    between atoms: _129  and  _131
REMARK   56  A    between atoms: _131  and  _132
REMARK   57  A    between atoms: _131  and  _134
REMARK   58  A    between atoms: _134  and  _135
REMARK   59  A    between atoms: _135  and  _136
REMARK   60  A    between atoms: _136  and  _137
REMARK   61  A    between atoms: _146  and  _148
REMARK   62  A    between atoms: _148  and  _149
REMARK   63  A    between atoms: _148  and  _151
REMARK   64  A    between atoms: _151  and  _152
REMARK   65  A    between atoms: _155  and  _157
REMARK   66  A    between atoms: _157  and  _158
REMARK   67  A    between atoms: _157  and  _160
REMARK   68  A    between atoms: _160  and  _161
REMARK   69  A    between atoms: _163  and  _165
REMARK   70  A    between atoms: _165  and  _166
REMARK   71  A    between atoms: _165  and  _168
REMARK   72  A    between atoms: _168  and  _169
REMARK   73  A    between atoms: _172  and  _174
REMARK   74  A    between atoms: _174  and  _175
REMARK   75  A    between atoms: _174  and  _177
REMARK   76  A    between atoms: _177  and  _178
REMARK   77  A    between atoms: _178  and  _179
REMARK   78  A    between atoms: _179  and  _180
REMARK   79  A    between atoms: _190  and  _191
REMARK   80  A    between atoms: _196  and  _198
REMARK   81  A    between atoms: _198  and  _199
REMARK   82  A    between atoms: _198  and  _201
REMARK   83  A    between atoms: _201  and  _202
REMARK   84  A    between atoms: _202  and  _203
REMARK   85  A    between atoms: _203  and  _204
REMARK   86  A    between atoms: _213  and  _215
REMARK   87  A    between atoms: _215  and  _216
REMARK   88  A    between atoms: _215  and  _218
REMARK   89  A    between atoms: _221  and  _223
REMARK   90  A    between atoms: _223  and  _224
REMARK   91  A    between atoms: _223  and  _226
REMARK   92  A    between atoms: _229  and  _231
REMARK   93  A    between atoms: _231  and  _232
REMARK   94  A    between atoms: _231  and  _234
REMARK   95  A    between atoms: _234  and  _235
REMARK   96  A    between atoms: _235  and  _236
REMARK   97  A    between atoms: _238  and  _240
REMARK   98  A    between atoms: _240  and  _241
REMARK   99  A    between atoms: _244  and  _246
REMARK  100  A    between atoms: _246  and  _247
REMARK  101  A    between atoms: _246  and  _249
REMARK  102  A    between atoms: _249  and  _250
REMARK  103  A    between atoms: _252  and  _254
REMARK  104  A    between atoms: _254  and  _255
REMARK  105  A    between atoms: _258  and  _260
REMARK  106  A    between atoms: _260  and  _261
REMARK  107  A    between atoms: _260  and  _263
REMARK  108  A    between atoms: _263  and  _264
REMARK  109  A    between atoms: _264  and  _265
REMARK  110  A    between atoms: _270  and  _272
REMARK  111  A    between atoms: _272  and  _273
REMARK  112  A    between atoms: _272  and  _275
REMARK  113  A    between atoms: _278  and  _280
REMARK  114  A    between atoms: _280  and  _281
REMARK  115  A    between atoms: _280  and  _283
REMARK  116  A    between atoms: _283  and  _284
REMARK  117  A    between atoms: _284  and  _285
REMARK  118  A    between atoms: _285  and  _286
REMARK  119  A    between atoms: _286  and  _287
REMARK  120  A    between atoms: _291  and  _293
REMARK  121  A    between atoms: _293  and  _294
REMARK  122  A    between atoms: _293  and  _296
REMARK  123  A    between atoms: _296  and  _297
REMARK  124  A    between atoms: _299  and  _301
REMARK  125  A    between atoms: _301  and  _302
REMARK  126  A    between atoms: _305  and  _307
REMARK  127  A    between atoms: _307  and  _308
REMARK  128  A    between atoms: _307  and  _310
REMARK  129  A    between atoms: _310  and  _311
REMARK  130  A    between atoms: _314  and  _316
REMARK  131  A    between atoms: _316  and  _317
REMARK  132  A    between atoms: _316  and  _319
REMARK  133  A    between atoms: _319  and  _320
REMARK  134  A    between atoms: _320  and  _321
REMARK  135  A    between atoms: _321  and  _322
REMARK  136  A    between atoms: _331  and  _333
REMARK  137  A    between atoms: _333  and  _334
REMARK  138  A    between atoms: _333  and  _336
REMARK  139  A    between atoms: _336  and  _337
REMARK  140  A    between atoms: _340  and  _342
REMARK  141  A    between atoms: _342  and  _343
REMARK  142  A    between atoms: _342  and  _345
REMARK  143  A    between atoms: _345  and  _346
REMARK  144  A    between atoms: _351  and  _353
REMARK  145  A    between atoms: _353  and  _354
REMARK  146  A    between atoms: _353  and  _356
REMARK  147  A    between atoms: _356  and  _357
REMARK  148  A    between atoms: _360  and  _362
REMARK  149  A    between atoms: _362  and  _363
REMARK  150  A    between atoms: _362  and  _365
REMARK  151  A    between atoms: _365  and  _366
REMARK  152  A    between atoms: _369  and  _371
REMARK  153  A    between atoms: _371  and  _372
REMARK  154  A    between atoms: _371  and  _374
REMARK  155  A    between atoms: _374  and  _375
REMARK  156  A    between atoms: _377  and  _379
REMARK  157  A    between atoms: _379  and  _380
REMARK  158  A    between atoms: _379  and  _382
REMARK  159  A    between atoms: _382  and  _383
REMARK  160  A    between atoms: _383  and  _384
REMARK  161  A    between atoms: _384  and  _385
REMARK  162  A    between atoms: _394  and  _396
REMARK  163  A    between atoms: _396  and  _397
REMARK  164  A    between atoms: _401  and  _402
REMARK  165  A    between atoms: _407  and  _409
REMARK  166  A    between atoms: _409  and  _410
REMARK  167  A    between atoms: _409  and  _412
REMARK  168  A    between atoms: _412  and  _413
REMARK  169  A    between atoms: _413  and  _414
REMARK  170  A    between atoms: _416  and  _418
REMARK  171  A    between atoms: _418  and  _419
REMARK  172  A    between atoms: _418  and  _421
REMARK  173  A    between atoms: _421  and  _422
REMARK  174  A    between atoms: _425  and  _427
REMARK  175  A    between atoms: _427  and  _428
REMARK  176  A    between atoms: _427  and  _430
REMARK  177  A    between atoms: _430  and  _431
REMARK  178  A    between atoms: _434  and  _436
REMARK  179  A    between atoms: _436  and  _437
REMARK  180  A    between atoms: _436  and  _439
REMARK  181  A    between atoms: _439  and  _440
REMARK  182  A    between atoms: _440  and  _441
REMARK  183  A    between atoms: _445  and  _446
REMARK  184  A    between atoms: _451  and  _453
REMARK  185  A    between atoms: _453  and  _454
REMARK  186  A    between atoms: _453  and  _456
REMARK  187  A    between atoms: _456  and  _457
REMARK  188  A    between atoms: _457  and  _458
REMARK  189  A    between atoms: _461  and  _463
REMARK  190  A    between atoms: _463  and  _464
REMARK  191  A    between atoms: _463  and  _466
REMARK  192  A    between atoms: _466  and  _467
REMARK  193  A    between atoms: _470  and  _472
REMARK  194  A    between atoms: _472  and  _473
REMARK  195  A    between atoms: _472  and  _475
REMARK  196  A    between atoms: _478  and  _480
REMARK  197  A    between atoms: _480  and  _481
REMARK  198  A    between atoms: _480  and  _483
REMARK  199  A    between atoms: _483  and  _484
REMARK  200  A    between atoms: _484  and  _485
REMARK  201  A    between atoms: _485  and  _486
REMARK  202  A    between atoms: _486  and  _487
REMARK  203  A    between atoms: _491  and  _493
REMARK  204  A    between atoms: _493  and  _494
REMARK  205  A    between atoms: _493  and  _496
REMARK  206  A    between atoms: _496  and  _497
REMARK  207  A    between atoms: _497  and  _498
REMARK  208  A    between atoms: _501  and  _503
REMARK  209  A    between atoms: _503  and  _504
REMARK  210  A    between atoms: _503  and  _506
REMARK  211  A    between atoms: _506  and  _507
REMARK  212  A    between atoms: _509  and  _511
REMARK  213  A    between atoms: _511  and  _512
REMARK  214  A    between atoms: _511  and  _514
REMARK  215  A    between atoms: _514  and  _515
REMARK  216  A    between atoms: _515  and  _516
REMARK  217  A    between atoms: _516  and  _517
REMARK  218  A    between atoms: _526  and  _528
REMARK  219  A    between atoms: _528  and  _529
REMARK  220  A    between atoms: _528  and  _531
REMARK  221  A    between atoms: _531  and  _532
REMARK  222  A    between atoms: _535  and  _537
REMARK  223  A    between atoms: _537  and  _538
REMARK  224  A    between atoms: _537  and  _540
REMARK  225  A    between atoms: _540  and  _541
REMARK  226  A    between atoms: _546  and  _548
REMARK  227  A    between atoms: _548  and  _549
REMARK  228  A    between atoms: _548  and  _551
REMARK  229  A    between atoms: _551  and  _552
REMARK  230  A    between atoms: _552  and  _553
REMARK  231  A    between atoms: _553  and  _554
REMARK  232  A    between atoms: _563  and  _565
REMARK  233  A    between atoms: _565  and  _566
REMARK  234  A    between atoms: _565  and  _568
REMARK  235  A    between atoms: _568  and  _569
REMARK  236  A    between atoms: _572  and  _574
REMARK  237  A    between atoms: _574  and  _575
REMARK  238  A    between atoms: _574  and  _577
REMARK  239  A    between atoms: _577  and  _578
REMARK  240  A    between atoms: _581  and  _583
REMARK  241  A    between atoms: _583  and  _584
REMARK  242  A    between atoms: _583  and  _586
REMARK  243  A    between atoms: _586  and  _587
REMARK                            x       y       z     vdW  Elec       q    Type
REMARK                         _______ _______ _______ _____ _____    ______ ____
ROOT
ATOM      1  O   HOH     1    -129.102  31.257 131.129  0.00  0.00    +0.000 OA
ENDROOT
TORSDOF 0
REMARK  Name = ../refined-set-2016/2pqc/2pqc_pocket.pdb
REMARK  243 active torsions:
REMARK  status: ('A' for Active; 'I' for Inactive)
REMARK    1  A    between atoms: _1  and  _3
REMARK    2  A    between atoms: _3  and  _4
REMARK    3  A    between atoms: _3  and  _6
REMARK    4  A    between atoms: _6  and  _7
REMARK    5  A    between atoms: _10  and  _12
REMARK    6  A    between atoms: _12  and  _13
REMARK    7  A    between atoms: _12  and  _15
REMARK    8  A    between atoms: _15  and  _16
REMARK    9  A    between atoms: _16  and  _17
REMARK   10  A    between atoms: _17  and  _18
REMARK   11  A    between atoms: _18  and  _19
REMARK   12  A    between atoms: _23  and  _25
REMARK   13  A    between atoms: _25  and  _26
REMARK   14  A    between atoms: _25  and  _28
REMARK   15  A    between atoms: _28  and  _29
REMARK   16  A    between atoms: _31  and  _33
REMARK   17  A    between atoms: _33  and  _34
REMARK   18  A    between atoms: _33  and  _36
REMARK   19  A    between atoms: _36  and  _37
REMARK   20  A    between atoms: _40  and  _42
REMARK   21  A    between atoms: _42  and  _43
REMARK   22  A    between atoms: _42  and  _45
REMARK   23  A    between atoms: _45  and  _46
REMARK   24  A    between atoms: _48  and  _50
REMARK   25  A    between atoms: _50  and  _51
REMARK   26  A    between atoms: _50  and  _53
REMARK   27  A    between atoms: _53  and  _54
REMARK   28  A    between atoms: _59  and  _61
REMARK   29  A    between atoms: _61  and  _62
REMARK   30  A    between atoms: _61  and  _64
REMARK   31  A    between atoms: _64  and  _65
REMARK   32  A    between atoms: _65  and  _66
REMARK   33  A    between atoms: _66  and  _67
REMARK   34  A    between atoms: _76  and  _78
REMARK   35  A    between atoms: _78  and  _79
REMARK   36  A    between atoms: _78  and  _81
REMARK   37  A    between atoms: _81  and  _82
REMARK   38  A    between atoms: _85  and  _87
REMARK   39  A    between atoms: _87  and  _88
REMARK   40  A    between atoms: _87  and  _90
REMARK   41  A    between atoms: _90  and  _91
REMARK   42  A    between atoms: _96  and  _98
REMARK   43  A    between atoms: _98  and  _99
REMARK   44  A    between atoms: _102  and  _104
REMARK   45  A    between atoms: _104  and  _105
REMARK   46  A    between atoms: _108  and  _110
REMARK   47  A    between atoms: _110  and  _111
REMARK   48  A    between atoms: _110  and  _113
REMARK   49  A    between atoms: _113  and  _114
REMARK   50  A    between atoms: _117  and  _119
REMARK   51  A    between atoms: _119  and  _120
REMARK   52  A    between atoms: _122  and  _124
REMARK   53  A    between atoms: _124  and  _125
REMARK   54  A    between atoms: _124  and  _127
REMARK   55  A    between atoms: _129  and  _131
REMARK   56  A    between atoms: _131  and  _132
REMARK   57  A    between atoms: _131  and  _134
REMARK   58  A    between atoms: _134  and  _135
REMARK   59  A    between atoms: _135  and  _136
REMARK   60  A    between atoms: _136  and  _137
REMARK   61  A    between atoms: _146  and  _148
REMARK   62  A    between atoms: _148  and  _149
REMARK   63  A    between atoms: _148  and  _151
REMARK   64  A    between atoms: _151  and  _152
REMARK   65  A    between atoms: _155  and  _157
REMARK   66  A    between atoms: _157  and  _158
REMARK   67  A    between atoms: _157  and  _160
REMARK   68  A    between atoms: _160  and  _161
REMARK   69  A    between atoms: _163  and  _165
REMARK   70  A    between atoms: _165  and  _166
REMARK   71  A    between atoms: _165  and  _168
REMARK   72  A    between atoms: _168  and  _169
REMARK   73  A    between atoms: _172  and  _174
REMARK   74  A    between atoms: _174  and  _175
REMARK   75  A    between atoms: _174  and  _177
REMARK   76  A    between atoms: _177  and  _178
REMARK   77  A    between atoms: _178  and  _179
REMARK   78  A    between atoms: _179  and  _180
REMARK   79  A    between atoms: _190  and  _191
REMARK   80  A    between atoms: _196  and  _198
REMARK   81  A    between atoms: _198  and  _199
REMARK   82  A    between atoms: _198  and  _201
REMARK   83  A    between atoms: _201  and  _202
REMARK   84  A    between atoms: _202  and  _203
REMARK   85  A    between atoms: _203  and  _204
REMARK   86  A    between atoms: _213  and  _215
REMARK   87  A    between atoms: _215  and  _216
REMARK   88  A    between atoms: _215  and  _218
REMARK   89  A    between atoms: _221  and  _223
REMARK   90  A    between atoms: _223  and  _224
REMARK   91  A    between atoms: _223  and  _226
REMARK   92  A    between atoms: _229  and  _231
REMARK   93  A    between atoms: _231  and  _232
REMARK   94  A    between atoms: _231  and  _234
REMARK   95  A    between atoms: _234  and  _235
REMARK   96  A    between atoms: _235  and  _236
REMARK   97  A    between atoms: _238  and  _240
REMARK   98  A    between atoms: _240  and  _241
REMARK   99  A    between atoms: _244  and  _246
REMARK  100  A    between atoms: _246  and  _247
REMARK  101  A    between atoms: _246  and  _249
REMARK  102  A    between atoms: _249  and  _250
REMARK  103  A    between atoms: _252  and  _254
REMARK  104  A    between atoms: _254  and  _255
REMARK  105  A    between atoms: _258  and  _260
REMARK  106  A    between atoms: _260  and  _261
REMARK  107  A    between atoms: _260  and  _263
REMARK  108  A    between atoms: _263  and  _264
REMARK  109  A    between atoms: _264  and  _265
REMARK  110  A    between atoms: _270  and  _272
REMARK  111  A    between atoms: _272  and  _273
REMARK  112  A    between atoms: _272  and  _275
REMARK  113  A    between atoms: _278  and  _280
REMARK  114  A    between atoms: _280  and  _281
REMARK  115  A    between atoms: _280  and  _283
REMARK  116  A    between atoms: _283  and  _284
REMARK  117  A    between atoms: _284  and  _285
REMARK  118  A    between atoms: _285  and  _286
REMARK  119  A    between atoms: _286  and  _287
REMARK  120  A    between atoms: _291  and  _293
REMARK  121  A    between atoms: _293  and  _294
REMARK  122  A    between atoms: _293  and  _296
REMARK  123  A    between atoms: _296  and  _297
REMARK  124  A    between atoms: _299  and  _301
REMARK  125  A    between atoms: _301  and  _302
REMARK  126  A    between atoms: _305  and  _307
REMARK  127  A    between atoms: _307  and  _308
REMARK  128  A    between atoms: _307  and  _310
REMARK  129  A    between atoms: _310  and  _311
REMARK  130  A    between atoms: _314  and  _316
REMARK  131  A    between atoms: _316  and  _317
REMARK  132  A    between atoms: _316  and  _319
REMARK  133  A    between atoms: _319  and  _320
REMARK  134  A    between atoms: _320  and  _321
REMARK  135  A    between atoms: _321  and  _322
REMARK  136  A    between atoms: _331  and  _333
REMARK  137  A    between atoms: _333  and  _334
REMARK  138  A    between atoms: _333  and  _336
REMARK  139  A    between atoms: _336  and  _337
REMARK  140  A    between atoms: _340  and  _342
REMARK  141  A    between atoms: _342  and  _343
REMARK  142  A    between atoms: _342  and  _345
REMARK  143  A    between atoms: _345  and  _346
REMARK  144  A    between atoms: _351  and  _353
REMARK  145  A    between atoms: _353  and  _354
REMARK  146  A    between atoms: _353  and  _356
REMARK  147  A    between atoms: _356  and  _357
REMARK  148  A    between atoms: _360  and  _362
REMARK  149  A    between atoms: _362  and  _363
REMARK  150  A    between atoms: _362  and  _365
REMARK  151  A    between atoms: _365  and  _366
REMARK  152  A    between atoms: _369  and  _371
REMARK  153  A    between atoms: _371  and  _372
REMARK  154  A    between atoms: _371  and  _374
REMARK  155  A    between atoms: _374  and  _375
REMARK  156  A    between atoms: _377  and  _379
REMARK  157  A    between atoms: _379  and  _380
REMARK  158  A    between atoms: _379  and  _382
REMARK  159  A    between atoms: _382  and  _383
REMARK  160  A    between atoms: _383  and  _384
REMARK  161  A    between atoms: _384  and  _385
REMARK  162  A    between atoms: _394  and  _396
REMARK  163  A    between atoms: _396  and  _397
REMARK  164  A    between atoms: _401  and  _402
REMARK  165  A    between atoms: _407  and  _409
REMARK  166  A    between atoms: _409  and  _410
REMARK  167  A    between atoms: _409  and  _412
REMARK  168  A    between atoms: _412  and  _413
REMARK  169  A    between atoms: _413  and  _414
REMARK  170  A    between atoms: _416  and  _418
REMARK  171  A    between atoms: _418  and  _419
REMARK  172  A    between atoms: _418  and  _421
REMARK  173  A    between atoms: _421  and  _422
REMARK  174  A    between atoms: _425  and  _427
REMARK  175  A    between atoms: _427  and  _428
REMARK  176  A    between atoms: _427  and  _430
REMARK  177  A    between atoms: _430  and  _431
REMARK  178  A    between atoms: _434  and  _436
REMARK  179  A    between atoms: _436  and  _437
REMARK  180  A    between atoms: _436  and  _439
REMARK  181  A    between atoms: _439  and  _440
REMARK  182  A    between atoms: _440  and  _441
REMARK  183  A    between atoms: _445  and  _446
REMARK  184  A    between atoms: _451  and  _453
REMARK  185  A    between atoms: _453  and  _454
REMARK  186  A    between atoms: _453  and  _456
REMARK  187  A    between atoms: _456  and  _457
REMARK  188  A    between atoms: _457  and  _458
REMARK  189  A    between atoms: _461  and  _463
REMARK  190  A    between atoms: _463  and  _464
REMARK  191  A    between atoms: _463  and  _466
REMARK  192  A    between atoms: _466  and  _467
REMARK  193  A    between atoms: _470  and  _472
REMARK  194  A    between atoms: _472  and  _473
REMARK  195  A    between atoms: _472  and  _475
REMARK  196  A    between atoms: _478  and  _480
REMARK  197  A    between atoms: _480  and  _481
REMARK  198  A    between atoms: _480  and  _483
REMARK  199  A    between atoms: _483  and  _484
REMARK  200  A    between atoms: _484  and  _485
REMARK  201  A    between atoms: _485  and  _486
REMARK  202  A    between atoms: _486  and  _487
REMARK  203  A    between atoms: _491  and  _493
REMARK  204  A    between atoms: _493  and  _494
REMARK  205  A    between atoms: _493  and  _496
REMARK  206  A    between atoms: _496  and  _497
REMARK  207  A    between atoms: _497  and  _498
REMARK  208  A    between atoms: _501  and  _503
REMARK  209  A    between atoms: _503  and  _504
REMARK  210  A    between atoms: _503  and  _506
REMARK  211  A    between atoms: _506  and  _507
REMARK  212  A    between atoms: _509  and  _511
REMARK  213  A    between atoms: _511  and  _512
REMARK  214  A    between atoms: _511  and  _514
REMARK  215  A    between atoms: _514  and  _515
REMARK  216  A    between atoms: _515  and  _516
REMARK  217  A    between atoms: _516  and  _517
REMARK  218  A    between atoms: _526  and  _528
REMARK  219  A    between atoms: _528  and  _529
REMARK  220  A    between atoms: _528  and  _531
REMARK  221  A    between atoms: _531  and  _532
REMARK  222  A    between atoms: _535  and  _537
REMARK  223  A    between atoms: _537  and  _538
REMARK  224  A    between atoms: _537  and  _540
REMARK  225  A    between atoms: _540  and  _541
REMARK  226  A    between atoms: _546  and  _548
REMARK  227  A    between atoms: _548  and  _549
REMARK  228  A    between atoms: _548  and  _551
REMARK  229  A    between atoms: _551  and  _552
REMARK  230  A    between atoms: _552  and  _553
REMARK  231  A    between atoms: _553  and  _554
REMARK  232  A    between atoms: _563  and  _565
REMARK  233  A    between atoms: _565  and  _566
REMARK  234  A    between atoms: _565  and  _568
REMARK  235  A    between atoms: _568  and  _569
REMARK  236  A    between atoms: _572  and  _574
REMARK  237  A    between atoms: _574  and  _575
REMARK  238  A    between atoms: _574  and  _577
REMARK  239  A    between atoms: _577  and  _578
REMARK  240  A    between atoms: _581  and  _583
REMARK  241  A    between atoms: _583  and  _584
REMARK  242  A    between atoms: _583  and  _586
REMARK  243  A    between atoms: _586  and  _587
REMARK                            x       y       z     vdW  Elec       q    Type
REMARK                         _______ _______ _______ _____ _____    ______ ____
ROOT
ATOM      1  O   HOH     1    -133.898  22.609 126.198  0.00  0.00    +0.000 OA
ENDROOT
TORSDOF 0
REMARK  Name = ../refined-set-2016/2pqc/2pqc_pocket.pdb
REMARK  243 active torsions:
REMARK  status: ('A' for Active; 'I' for Inactive)
REMARK    1  A    between atoms: _1  and  _3
REMARK    2  A    between atoms: _3  and  _4
REMARK    3  A    between atoms: _3  and  _6
REMARK    4  A    between atoms: _6  and  _7
REMARK    5  A    between atoms: _10  and  _12
REMARK    6  A    between atoms: _12  and  _13
REMARK    7  A    between atoms: _12  and  _15
REMARK    8  A    between atoms: _15  and  _16
REMARK    9  A    between atoms: _16  and  _17
REMARK   10  A    between atoms: _17  and  _18
REMARK   11  A    between atoms: _18  and  _19
REMARK   12  A    between atoms: _23  and  _25
REMARK   13  A    between atoms: _25  and  _26
REMARK   14  A    between atoms: _25  and  _28
REMARK   15  A    between atoms: _28  and  _29
REMARK   16  A    between atoms: _31  and  _33
REMARK   17  A    between atoms: _33  and  _34
REMARK   18  A    between atoms: _33  and  _36
REMARK   19  A    between atoms: _36  and  _37
REMARK   20  A    between atoms: _40  and  _42
REMARK   21  A    between atoms: _42  and  _43
REMARK   22  A    between atoms: _42  and  _45
REMARK   23  A    between atoms: _45  and  _46
REMARK   24  A    between atoms: _48  and  _50
REMARK   25  A    between atoms: _50  and  _51
REMARK   26  A    between atoms: _50  and  _53
REMARK   27  A    between atoms: _53  and  _54
REMARK   28  A    between atoms: _59  and  _61
REMARK   29  A    between atoms: _61  and  _62
REMARK   30  A    between atoms: _61  and  _64
REMARK   31  A    between atoms: _64  and  _65
REMARK   32  A    between atoms: _65  and  _66
REMARK   33  A    between atoms: _66  and  _67
REMARK   34  A    between atoms: _76  and  _78
REMARK   35  A    between atoms: _78  and  _79
REMARK   36  A    between atoms: _78  and  _81
REMARK   37  A    between atoms: _81  and  _82
REMARK   38  A    between atoms: _85  and  _87
REMARK   39  A    between atoms: _87  and  _88
REMARK   40  A    between atoms: _87  and  _90
REMARK   41  A    between atoms: _90  and  _91
REMARK   42  A    between atoms: _96  and  _98
REMARK   43  A    between atoms: _98  and  _99
REMARK   44  A    between atoms: _102  and  _104
REMARK   45  A    between atoms: _104  and  _105
REMARK   46  A    between atoms: _108  and  _110
REMARK   47  A    between atoms: _110  and  _111
REMARK   48  A    between atoms: _110  and  _113
REMARK   49  A    between atoms: _113  and  _114
REMARK   50  A    between atoms: _117  and  _119
REMARK   51  A    between atoms: _119  and  _120
REMARK   52  A    between atoms: _122  and  _124
REMARK   53  A    between atoms: _124  and  _125
REMARK   54  A    between atoms: _124  and  _127
REMARK   55  A    between atoms: _129  and  _131
REMARK   56  A    between atoms: _131  and  _132
REMARK   57  A    between atoms: _131  and  _134
REMARK   58  A    between atoms: _134  and  _135
REMARK   59  A    between atoms: _135  and  _136
REMARK   60  A    between atoms: _136  and  _137
REMARK   61  A    between atoms: _146  and  _148
REMARK   62  A    between atoms: _148  and  _149
REMARK   63  A    between atoms: _148  and  _151
REMARK   64  A    between atoms: _151  and  _152
REMARK   65  A    between atoms: _155  and  _157
REMARK   66  A    between atoms: _157  and  _158
REMARK   67  A    between atoms: _157  and  _160
REMARK   68  A    between atoms: _160  and  _161
REMARK   69  A    between atoms: _163  and  _165
REMARK   70  A    between atoms: _165  and  _166
REMARK   71  A    between atoms: _165  and  _168
REMARK   72  A    between atoms: _168  and  _169
REMARK   73  A    between atoms: _172  and  _174
REMARK   74  A    between atoms: _174  and  _175
REMARK   75  A    between atoms: _174  and  _177
REMARK   76  A    between atoms: _177  and  _178
REMARK   77  A    between atoms: _178  and  _179
REMARK   78  A    between atoms: _179  and  _180
REMARK   79  A    between atoms: _190  and  _191
REMARK   80  A    between atoms: _196  and  _198
REMARK   81  A    between atoms: _198  and  _199
REMARK   82  A    between atoms: _198  and  _201
REMARK   83  A    between atoms: _201  and  _202
REMARK   84  A    between atoms: _202  and  _203
REMARK   85  A    between atoms: _203  and  _204
REMARK   86  A    between atoms: _213  and  _215
REMARK   87  A    between atoms: _215  and  _216
REMARK   88  A    between atoms: _215  and  _218
REMARK   89  A    between atoms: _221  and  _223
REMARK   90  A    between atoms: _223  and  _224
REMARK   91  A    between atoms: _223  and  _226
REMARK   92  A    between atoms: _229  and  _231
REMARK   93  A    between atoms: _231  and  _232
REMARK   94  A    between atoms: _231  and  _234
REMARK   95  A    between atoms: _234  and  _235
REMARK   96  A    between atoms: _235  and  _236
REMARK   97  A    between atoms: _238  and  _240
REMARK   98  A    between atoms: _240  and  _241
REMARK   99  A    between atoms: _244  and  _246
REMARK  100  A    between atoms: _246  and  _247
REMARK  101  A    between atoms: _246  and  _249
REMARK  102  A    between atoms: _249  and  _250
REMARK  103  A    between atoms: _252  and  _254
REMARK  104  A    between atoms: _254  and  _255
REMARK  105  A    between atoms: _258  and  _260
REMARK  106  A    between atoms: _260  and  _261
REMARK  107  A    between atoms: _260  and  _263
REMARK  108  A    between atoms: _263  and  _264
REMARK  109  A    between atoms: _264  and  _265
REMARK  110  A    between atoms: _270  and  _272
REMARK  111  A    between atoms: _272  and  _273
REMARK  112  A    between atoms: _272  and  _275
REMARK  113  A    between atoms: _278  and  _280
REMARK  114  A    between atoms: _280  and  _281
REMARK  115  A    between atoms: _280  and  _283
REMARK  116  A    between atoms: _283  and  _284
REMARK  117  A    between atoms: _284  and  _285
REMARK  118  A    between atoms: _285  and  _286
REMARK  119  A    between atoms: _286  and  _287
REMARK  120  A    between atoms: _291  and  _293
REMARK  121  A    between atoms: _293  and  _294
REMARK  122  A    between atoms: _293  and  _296
REMARK  123  A    between atoms: _296  and  _297
REMARK  124  A    between atoms: _299  and  _301
REMARK  125  A    between atoms: _301  and  _302
REMARK  126  A    between atoms: _305  and  _307
REMARK  127  A    between atoms: _307  and  _308
REMARK  128  A    between atoms: _307  and  _310
REMARK  129  A    between atoms: _310  and  _311
REMARK  130  A    between atoms: _314  and  _316
REMARK  131  A    between atoms: _316  and  _317
REMARK  132  A    between atoms: _316  and  _319
REMARK  133  A    between atoms: _319  and  _320
REMARK  134  A    between atoms: _320  and  _321
REMARK  135  A    between atoms: _321  and  _322
REMARK  136  A    between atoms: _331  and  _333
REMARK  137  A    between atoms: _333  and  _334
REMARK  138  A    between atoms: _333  and  _336
REMARK  139  A    between atoms: _336  and  _337
REMARK  140  A    between atoms: _340  and  _342
REMARK  141  A    between atoms: _342  and  _343
REMARK  142  A    between atoms: _342  and  _345
REMARK  143  A    between atoms: _345  and  _346
REMARK  144  A    between atoms: _351  and  _353
REMARK  145  A    between atoms: _353  and  _354
REMARK  146  A    between atoms: _353  and  _356
REMARK  147  A    between atoms: _356  and  _357
REMARK  148  A    between atoms: _360  and  _362
REMARK  149  A    between atoms: _362  and  _363
REMARK  150  A    between atoms: _362  and  _365
REMARK  151  A    between atoms: _365  and  _366
REMARK  152  A    between atoms: _369  and  _371
REMARK  153  A    between atoms: _371  and  _372
REMARK  154  A    between atoms: _371  and  _374
REMARK  155  A    between atoms: _374  and  _375
REMARK  156  A    between atoms: _377  and  _379
REMARK  157  A    between atoms: _379  and  _380
REMARK  158  A    between atoms: _379  and  _382
REMARK  159  A    between atoms: _382  and  _383
REMARK  160  A    between atoms: _383  and  _384
REMARK  161  A    between atoms: _384  and  _385
REMARK  162  A    between atoms: _394  and  _396
REMARK  163  A    between atoms: _396  and  _397
REMARK  164  A    between atoms: _401  and  _402
REMARK  165  A    between atoms: _407  and  _409
REMARK  166  A    between atoms: _409  and  _410
REMARK  167  A    between atoms: _409  and  _412
REMARK  168  A    between atoms: _412  and  _413
REMARK  169  A    between atoms: _413  and  _414
REMARK  170  A    between atoms: _416  and  _418
REMARK  171  A    between atoms: _418  and  _419
REMARK  172  A    between atoms: _418  and  _421
REMARK  173  A    between atoms: _421  and  _422
REMARK  174  A    between atoms: _425  and  _427
REMARK  175  A    between atoms: _427  and  _428
REMARK  176  A    between atoms: _427  and  _430
REMARK  177  A    between atoms: _430  and  _431
REMARK  178  A    between atoms: _434  and  _436
REMARK  179  A    between atoms: _436  and  _437
REMARK  180  A    between atoms: _436  and  _439
REMARK  181  A    between atoms: _439  and  _440
REMARK  182  A    between atoms: _440  and  _441
REMARK  183  A    between atoms: _445  and  _446
REMARK  184  A    between atoms: _451  and  _453
REMARK  185  A    between atoms: _453  and  _454
REMARK  186  A    between atoms: _453  and  _456
REMARK  187  A    between atoms: _456  and  _457
REMARK  188  A    between atoms: _457  and  _458
REMARK  189  A    between atoms: _461  and  _463
REMARK  190  A    between atoms: _463  and  _464
REMARK  191  A    between atoms: _463  and  _466
REMARK  192  A    between atoms: _466  and  _467
REMARK  193  A    between atoms: _470  and  _472
REMARK  194  A    between atoms: _472  and  _473
REMARK  195  A    between atoms: _472  and  _475
REMARK  196  A    between atoms: _478  and  _480
REMARK  197  A    between atoms: _480  and  _481
REMARK  198  A    between atoms: _480  and  _483
REMARK  199  A    between atoms: _483  and  _484
REMARK  200  A    between atoms: _484  and  _485
REMARK  201  A    between atoms: _485  and  _486
REMARK  202  A    between atoms: _486  and  _487
REMARK  203  A    between atoms: _491  and  _493
REMARK  204  A    between atoms: _493  and  _494
REMARK  205  A    between atoms: _493  and  _496
REMARK  206  A    between atoms: _496  and  _497
REMARK  207  A    between atoms: _497  and  _498
REMARK  208  A    between atoms: _501  and  _503
REMARK  209  A    between atoms: _503  and  _504
REMARK  210  A    between atoms: _503  and  _506
REMARK  211  A    between atoms: _506  and  _507
REMARK  212  A    between atoms: _509  and  _511
REMARK  213  A    between atoms: _511  and  _512
REMARK  214  A    between atoms: _511  and  _514
REMARK  215  A    between atoms: _514  and  _515
REMARK  216  A    between atoms: _515  and  _516
REMARK  217  A    between atoms: _516  and  _517
REMARK  218  A    between atoms: _526  and  _528
REMARK  219  A    between atoms: _528  and  _529
REMARK  220  A    between atoms: _528  and  _531
REMARK  221  A    between atoms: _531  and  _532
REMARK  222  A    between atoms: _535  and  _537
REMARK  223  A    between atoms: _537  and  _538
REMARK  224  A    between atoms: _537  and  _540
REMARK  225  A    between atoms: _540  and  _541
REMARK  226  A    between atoms: _546  and  _548
REMARK  227  A    between atoms: _548  and  _549
REMARK  228  A    between atoms: _548  and  _551
REMARK  229  A    between atoms: _551  and  _552
REMARK  230  A    between atoms: _552  and  _553
REMARK  231  A    between atoms: _553  and  _554
REMARK  232  A    between atoms: _563  and  _565
REMARK  233  A    between atoms: _565  and  _566
REMARK  234  A    between atoms: _565  and  _568
REMARK  235  A    between atoms: _568  and  _569
REMARK  236  A    between atoms: _572  and  _574
REMARK  237  A    between atoms: _574  and  _575
REMARK  238  A    between atoms: _574  and  _577
REMARK  239  A    between atoms: _577  and  _578
REMARK  240  A    between atoms: _581  and  _583
REMARK  241  A    between atoms: _583  and  _584
REMARK  242  A    between atoms: _583  and  _586
REMARK  243  A    between atoms: _586  and  _587
REMARK                            x       y       z     vdW  Elec       q    Type
REMARK                         _______ _______ _______ _____ _____    ______ ____
ROOT
ATOM      1  O   HOH     1    -134.510  32.689 121.951  0.00  0.00    +0.000 OA
ENDROOT
TORSDOF 0
REMARK  Name = ../refined-set-2016/2pqc/2pqc_pocket.pdb
REMARK  243 active torsions:
REMARK  status: ('A' for Active; 'I' for Inactive)
REMARK    1  A    between atoms: _1  and  _3
REMARK    2  A    between atoms: _3  and  _4
REMARK    3  A    between atoms: _3  and  _6
REMARK    4  A    between atoms: _6  and  _7
REMARK    5  A    between atoms: _10  and  _12
REMARK    6  A    between atoms: _12  and  _13
REMARK    7  A    between atoms: _12  and  _15
REMARK    8  A    between atoms: _15  and  _16
REMARK    9  A    between atoms: _16  and  _17
REMARK   10  A    between atoms: _17  and  _18
REMARK   11  A    between atoms: _18  and  _19
REMARK   12  A    between atoms: _23  and  _25
REMARK   13  A    between atoms: _25  and  _26
REMARK   14  A    between atoms: _25  and  _28
REMARK   15  A    between atoms: _28  and  _29
REMARK   16  A    between atoms: _31  and  _33
REMARK   17  A    between atoms: _33  and  _34
REMARK   18  A    between atoms: _33  and  _36
REMARK   19  A    between atoms: _36  and  _37
REMARK   20  A    between atoms: _40  and  _42
REMARK   21  A    between atoms: _42  and  _43
REMARK   22  A    between atoms: _42  and  _45
REMARK   23  A    between atoms: _45  and  _46
REMARK   24  A    between atoms: _48  and  _50
REMARK   25  A    between atoms: _50  and  _51
REMARK   26  A    between atoms: _50  and  _53
REMARK   27  A    between atoms: _53  and  _54
REMARK   28  A    between atoms: _59  and  _61
REMARK   29  A    between atoms: _61  and  _62
REMARK   30  A    between atoms: _61  and  _64
REMARK   31  A    between atoms: _64  and  _65
REMARK   32  A    between atoms: _65  and  _66
REMARK   33  A    between atoms: _66  and  _67
REMARK   34  A    between atoms: _76  and  _78
REMARK   35  A    between atoms: _78  and  _79
REMARK   36  A    between atoms: _78  and  _81
REMARK   37  A    between atoms: _81  and  _82
REMARK   38  A    between atoms: _85  and  _87
REMARK   39  A    between atoms: _87  and  _88
REMARK   40  A    between atoms: _87  and  _90
REMARK   41  A    between atoms: _90  and  _91
REMARK   42  A    between atoms: _96  and  _98
REMARK   43  A    between atoms: _98  and  _99
REMARK   44  A    between atoms: _102  and  _104
REMARK   45  A    between atoms: _104  and  _105
REMARK   46  A    between atoms: _108  and  _110
REMARK   47  A    between atoms: _110  and  _111
REMARK   48  A    between atoms: _110  and  _113
REMARK   49  A    between atoms: _113  and  _114
REMARK   50  A    between atoms: _117  and  _119
REMARK   51  A    between atoms: _119  and  _120
REMARK   52  A    between atoms: _122  and  _124
REMARK   53  A    between atoms: _124  and  _125
REMARK   54  A    between atoms: _124  and  _127
REMARK   55  A    between atoms: _129  and  _131
REMARK   56  A    between atoms: _131  and  _132
REMARK   57  A    between atoms: _131  and  _134
REMARK   58  A    between atoms: _134  and  _135
REMARK   59  A    between atoms: _135  and  _136
REMARK   60  A    between atoms: _136  and  _137
REMARK   61  A    between atoms: _146  and  _148
REMARK   62  A    between atoms: _148  and  _149
REMARK   63  A    between atoms: _148  and  _151
REMARK   64  A    between atoms: _151  and  _152
REMARK   65  A    between atoms: _155  and  _157
REMARK   66  A    between atoms: _157  and  _158
REMARK   67  A    between atoms: _157  and  _160
REMARK   68  A    between atoms: _160  and  _161
REMARK   69  A    between atoms: _163  and  _165
REMARK   70  A    between atoms: _165  and  _166
REMARK   71  A    between atoms: _165  and  _168
REMARK   72  A    between atoms: _168  and  _169
REMARK   73  A    between atoms: _172  and  _174
REMARK   74  A    between atoms: _174  and  _175
REMARK   75  A    between atoms: _174  and  _177
REMARK   76  A    between atoms: _177  and  _178
REMARK   77  A    between atoms: _178  and  _179
REMARK   78  A    between atoms: _179  and  _180
REMARK   79  A    between atoms: _190  and  _191
REMARK   80  A    between atoms: _196  and  _198
REMARK   81  A    between atoms: _198  and  _199
REMARK   82  A    between atoms: _198  and  _201
REMARK   83  A    between atoms: _201  and  _202
REMARK   84  A    between atoms: _202  and  _203
REMARK   85  A    between atoms: _203  and  _204
REMARK   86  A    between atoms: _213  and  _215
REMARK   87  A    between atoms: _215  and  _216
REMARK   88  A    between atoms: _215  and  _218
REMARK   89  A    between atoms: _221  and  _223
REMARK   90  A    between atoms: _223  and  _224
REMARK   91  A    between atoms: _223  and  _226
REMARK   92  A    between atoms: _229  and  _231
REMARK   93  A    between atoms: _231  and  _232
REMARK   94  A    between atoms: _231  and  _234
REMARK   95  A    between atoms: _234  and  _235
REMARK   96  A    between atoms: _235  and  _236
REMARK   97  A    between atoms: _238  and  _240
REMARK   98  A    between atoms: _240  and  _241
REMARK   99  A    between atoms: _244  and  _246
REMARK  100  A    between atoms: _246  and  _247
REMARK  101  A    between atoms: _246  and  _249
REMARK  102  A    between atoms: _249  and  _250
REMARK  103  A    between atoms: _252  and  _254
REMARK  104  A    between atoms: _254  and  _255
REMARK  105  A    between atoms: _258  and  _260
REMARK  106  A    between atoms: _260  and  _261
REMARK  107  A    between atoms: _260  and  _263
REMARK  108  A    between atoms: _263  and  _264
REMARK  109  A    between atoms: _264  and  _265
REMARK  110  A    between atoms: _270  and  _272
REMARK  111  A    between atoms: _272  and  _273
REMARK  112  A    between atoms: _272  and  _275
REMARK  113  A    between atoms: _278  and  _280
REMARK  114  A    between atoms: _280  and  _281
REMARK  115  A    between atoms: _280  and  _283
REMARK  116  A    between atoms: _283  and  _284
REMARK  117  A    between atoms: _284  and  _285
REMARK  118  A    between atoms: _285  and  _286
REMARK  119  A    between atoms: _286  and  _287
REMARK  120  A    between atoms: _291  and  _293
REMARK  121  A    between atoms: _293  and  _294
REMARK  122  A    between atoms: _293  and  _296
REMARK  123  A    between atoms: _296  and  _297
REMARK  124  A    between atoms: _299  and  _301
REMARK  125  A    between atoms: _301  and  _302
REMARK  126  A    between atoms: _305  and  _307
REMARK  127  A    between atoms: _307  and  _308
REMARK  128  A    between atoms: _307  and  _310
REMARK  129  A    between atoms: _310  and  _311
REMARK  130  A    between atoms: _314  and  _316
REMARK  131  A    between atoms: _316  and  _317
REMARK  132  A    between atoms: _316  and  _319
REMARK  133  A    between atoms: _319  and  _320
REMARK  134  A    between atoms: _320  and  _321
REMARK  135  A    between atoms: _321  and  _322
REMARK  136  A    between atoms: _331  and  _333
REMARK  137  A    between atoms: _333  and  _334
REMARK  138  A    between atoms: _333  and  _336
REMARK  139  A    between atoms: _336  and  _337
REMARK  140  A    between atoms: _340  and  _342
REMARK  141  A    between atoms: _342  and  _343
REMARK  142  A    between atoms: _342  and  _345
REMARK  143  A    between atoms: _345  and  _346
REMARK  144  A    between atoms: _351  and  _353
REMARK  145  A    between atoms: _353  and  _354
REMARK  146  A    between atoms: _353  and  _356
REMARK  147  A    between atoms: _356  and  _357
REMARK  148  A    between atoms: _360  and  _362
REMARK  149  A    between atoms: _362  and  _363
REMARK  150  A    between atoms: _362  and  _365
REMARK  151  A    between atoms: _365  and  _366
REMARK  152  A    between atoms: _369  and  _371
REMARK  153  A    between atoms: _371  and  _372
REMARK  154  A    between atoms: _371  and  _374
REMARK  155  A    between atoms: _374  and  _375
REMARK  156  A    between atoms: _377  and  _379
REMARK  157  A    between atoms: _379  and  _380
REMARK  158  A    between atoms: _379  and  _382
REMARK  159  A    between atoms: _382  and  _383
REMARK  160  A    between atoms: _383  and  _384
REMARK  161  A    between atoms: _384  and  _385
REMARK  162  A    between atoms: _394  and  _396
REMARK  163  A    between atoms: _396  and  _397
REMARK  164  A    between atoms: _401  and  _402
REMARK  165  A    between atoms: _407  and  _409
REMARK  166  A    between atoms: _409  and  _410
REMARK  167  A    between atoms: _409  and  _412
REMARK  168  A    between atoms: _412  and  _413
REMARK  169  A    between atoms: _413  and  _414
REMARK  170  A    between atoms: _416  and  _418
REMARK  171  A    between atoms: _418  and  _419
REMARK  172  A    between atoms: _418  and  _421
REMARK  173  A    between atoms: _421  and  _422
REMARK  174  A    between atoms: _425  and  _427
REMARK  175  A    between atoms: _427  and  _428
REMARK  176  A    between atoms: _427  and  _430
REMARK  177  A    between atoms: _430  and  _431
REMARK  178  A    between atoms: _434  and  _436
REMARK  179  A    between atoms: _436  and  _437
REMARK  180  A    between atoms: _436  and  _439
REMARK  181  A    between atoms: _439  and  _440
REMARK  182  A    between atoms: _440  and  _441
REMARK  183  A    between atoms: _445  and  _446
REMARK  184  A    between atoms: _451  and  _453
REMARK  185  A    between atoms: _453  and  _454
REMARK  186  A    between atoms: _453  and  _456
REMARK  187  A    between atoms: _456  and  _457
REMARK  188  A    between atoms: _457  and  _458
REMARK  189  A    between atoms: _461  and  _463
REMARK  190  A    between atoms: _463  and  _464
REMARK  191  A    between atoms: _463  and  _466
REMARK  192  A    between atoms: _466  and  _467
REMARK  193  A    between atoms: _470  and  _472
REMARK  194  A    between atoms: _472  and  _473
REMARK  195  A    between atoms: _472  and  _475
REMARK  196  A    between atoms: _478  and  _480
REMARK  197  A    between atoms: _480  and  _481
REMARK  198  A    between atoms: _480  and  _483
REMARK  199  A    between atoms: _483  and  _484
REMARK  200  A    between atoms: _484  and  _485
REMARK  201  A    between atoms: _485  and  _486
REMARK  202  A    between atoms: _486  and  _487
REMARK  203  A    between atoms: _491  and  _493
REMARK  204  A    between atoms: _493  and  _494
REMARK  205  A    between atoms: _493  and  _496
REMARK  206  A    between atoms: _496  and  _497
REMARK  207  A    between atoms: _497  and  _498
REMARK  208  A    between atoms: _501  and  _503
REMARK  209  A    between atoms: _503  and  _504
REMARK  210  A    between atoms: _503  and  _506
REMARK  211  A    between atoms: _506  and  _507
REMARK  212  A    between atoms: _509  and  _511
REMARK  213  A    between atoms: _511  and  _512
REMARK  214  A    between atoms: _511  and  _514
REMARK  215  A    between atoms: _514  and  _515
REMARK  216  A    between atoms: _515  and  _516
REMARK  217  A    between atoms: _516  and  _517
REMARK  218  A    between atoms: _526  and  _528
REMARK  219  A    between atoms: _528  and  _529
REMARK  220  A    between atoms: _528  and  _531
REMARK  221  A    between atoms: _531  and  _532
REMARK  222  A    between atoms: _535  and  _537
REMARK  223  A    between atoms: _537  and  _538
REMARK  224  A    between atoms: _537  and  _540
REMARK  225  A    between atoms: _540  and  _541
REMARK  226  A    between atoms: _546  and  _548
REMARK  227  A    between atoms: _548  and  _549
REMARK  228  A    between atoms: _548  and  _551
REMARK  229  A    between atoms: _551  and  _552
REMARK  230  A    between atoms: _552  and  _553
REMARK  231  A    between atoms: _553  and  _554
REMARK  232  A    between atoms: _563  and  _565
REMARK  233  A    between atoms: _565  and  _566
REMARK  234  A    between atoms: _565  and  _568
REMARK  235  A    between atoms: _568  and  _569
REMARK  236  A    between atoms: _572  and  _574
REMARK  237  A    between atoms: _574  and  _575
REMARK  238  A    between atoms: _574  and  _577
REMARK  239  A    between atoms: _577  and  _578
REMARK  240  A    between atoms: _581  and  _583
REMARK  241  A    between atoms: _583  and  _584
REMARK  242  A    between atoms: _583  and  _586
REMARK  243  A    between atoms: _586  and  _587
REMARK                            x       y       z     vdW  Elec       q    Type
REMARK                         _______ _______ _______ _____ _____    ______ ____
ROOT
ATOM      1  O   HOH     1    -120.106  34.676 120.131  0.00  0.00    +0.000 OA
ENDROOT
TORSDOF 0
REMARK  Name = ../refined-set-2016/2pqc/2pqc_pocket.pdb
REMARK  243 active torsions:
REMARK  status: ('A' for Active; 'I' for Inactive)
REMARK    1  A    between atoms: _1  and  _3
REMARK    2  A    between atoms: _3  and  _4
REMARK    3  A    between atoms: _3  and  _6
REMARK    4  A    between atoms: _6  and  _7
REMARK    5  A    between atoms: _10  and  _12
REMARK    6  A    between atoms: _12  and  _13
REMARK    7  A    between atoms: _12  and  _15
REMARK    8  A    between atoms: _15  and  _16
REMARK    9  A    between atoms: _16  and  _17
REMARK   10  A    between atoms: _17  and  _18
REMARK   11  A    between atoms: _18  and  _19
REMARK   12  A    between atoms: _23  and  _25
REMARK   13  A    between atoms: _25  and  _26
REMARK   14  A    between atoms: _25  and  _28
REMARK   15  A    between atoms: _28  and  _29
REMARK   16  A    between atoms: _31  and  _33
REMARK   17  A    between atoms: _33  and  _34
REMARK   18  A    between atoms: _33  and  _36
REMARK   19  A    between atoms: _36  and  _37
REMARK   20  A    between atoms: _40  and  _42
REMARK   21  A    between atoms: _42  and  _43
REMARK   22  A    between atoms: _42  and  _45
REMARK   23  A    between atoms: _45  and  _46
REMARK   24  A    between atoms: _48  and  _50
REMARK   25  A    between atoms: _50  and  _51
REMARK   26  A    between atoms: _50  and  _53
REMARK   27  A    between atoms: _53  and  _54
REMARK   28  A    between atoms: _59  and  _61
REMARK   29  A    between atoms: _61  and  _62
REMARK   30  A    between atoms: _61  and  _64
REMARK   31  A    between atoms: _64  and  _65
REMARK   32  A    between atoms: _65  and  _66
REMARK   33  A    between atoms: _66  and  _67
REMARK   34  A    between atoms: _76  and  _78
REMARK   35  A    between atoms: _78  and  _79
REMARK   36  A    between atoms: _78  and  _81
REMARK   37  A    between atoms: _81  and  _82
REMARK   38  A    between atoms: _85  and  _87
REMARK   39  A    between atoms: _87  and  _88
REMARK   40  A    between atoms: _87  and  _90
REMARK   41  A    between atoms: _90  and  _91
REMARK   42  A    between atoms: _96  and  _98
REMARK   43  A    between atoms: _98  and  _99
REMARK   44  A    between atoms: _102  and  _104
REMARK   45  A    between atoms: _104  and  _105
REMARK   46  A    between atoms: _108  and  _110
REMARK   47  A    between atoms: _110  and  _111
REMARK   48  A    between atoms: _110  and  _113
REMARK   49  A    between atoms: _113  and  _114
REMARK   50  A    between atoms: _117  and  _119
REMARK   51  A    between atoms: _119  and  _120
REMARK   52  A    between atoms: _122  and  _124
REMARK   53  A    between atoms: _124  and  _125
REMARK   54  A    between atoms: _124  and  _127
REMARK   55  A    between atoms: _129  and  _131
REMARK   56  A    between atoms: _131  and  _132
REMARK   57  A    between atoms: _131  and  _134
REMARK   58  A    between atoms: _134  and  _135
REMARK   59  A    between atoms: _135  and  _136
REMARK   60  A    between atoms: _136  and  _137
REMARK   61  A    between atoms: _146  and  _148
REMARK   62  A    between atoms: _148  and  _149
REMARK   63  A    between atoms: _148  and  _151
REMARK   64  A    between atoms: _151  and  _152
REMARK   65  A    between atoms: _155  and  _157
REMARK   66  A    between atoms: _157  and  _158
REMARK   67  A    between atoms: _157  and  _160
REMARK   68  A    between atoms: _160  and  _161
REMARK   69  A    between atoms: _163  and  _165
REMARK   70  A    between atoms: _165  and  _166
REMARK   71  A    between atoms: _165  and  _168
REMARK   72  A    between atoms: _168  and  _169
REMARK   73  A    between atoms: _172  and  _174
REMARK   74  A    between atoms: _174  and  _175
REMARK   75  A    between atoms: _174  and  _177
REMARK   76  A    between atoms: _177  and  _178
REMARK   77  A    between atoms: _178  and  _179
REMARK   78  A    between atoms: _179  and  _180
REMARK   79  A    between atoms: _190  and  _191
REMARK   80  A    between atoms: _196  and  _198
REMARK   81  A    between atoms: _198  and  _199
REMARK   82  A    between atoms: _198  and  _201
REMARK   83  A    between atoms: _201  and  _202
REMARK   84  A    between atoms: _202  and  _203
REMARK   85  A    between atoms: _203  and  _204
REMARK   86  A    between atoms: _213  and  _215
REMARK   87  A    between atoms: _215  and  _216
REMARK   88  A    between atoms: _215  and  _218
REMARK   89  A    between atoms: _221  and  _223
REMARK   90  A    between atoms: _223  and  _224
REMARK   91  A    between atoms: _223  and  _226
REMARK   92  A    between atoms: _229  and  _231
REMARK   93  A    between atoms: _231  and  _232
REMARK   94  A    between atoms: _231  and  _234
REMARK   95  A    between atoms: _234  and  _235
REMARK   96  A    between atoms: _235  and  _236
REMARK   97  A    between atoms: _238  and  _240
REMARK   98  A    between atoms: _240  and  _241
REMARK   99  A    between atoms: _244  and  _246
REMARK  100  A    between atoms: _246  and  _247
REMARK  101  A    between atoms: _246  and  _249
REMARK  102  A    between atoms: _249  and  _250
REMARK  103  A    between atoms: _252  and  _254
REMARK  104  A    between atoms: _254  and  _255
REMARK  105  A    between atoms: _258  and  _260
REMARK  106  A    between atoms: _260  and  _261
REMARK  107  A    between atoms: _260  and  _263
REMARK  108  A    between atoms: _263  and  _264
REMARK  109  A    between atoms: _264  and  _265
REMARK  110  A    between atoms: _270  and  _272
REMARK  111  A    between atoms: _272  and  _273
REMARK  112  A    between atoms: _272  and  _275
REMARK  113  A    between atoms: _278  and  _280
REMARK  114  A    between atoms: _280  and  _281
REMARK  115  A    between atoms: _280  and  _283
REMARK  116  A    between atoms: _283  and  _284
REMARK  117  A    between atoms: _284  and  _285
REMARK  118  A    between atoms: _285  and  _286
REMARK  119  A    between atoms: _286  and  _287
REMARK  120  A    between atoms: _291  and  _293
REMARK  121  A    between atoms: _293  and  _294
REMARK  122  A    between atoms: _293  and  _296
REMARK  123  A    between atoms: _296  and  _297
REMARK  124  A    between atoms: _299  and  _301
REMARK  125  A    between atoms: _301  and  _302
REMARK  126  A    between atoms: _305  and  _307
REMARK  127  A    between atoms: _307  and  _308
REMARK  128  A    between atoms: _307  and  _310
REMARK  129  A    between atoms: _310  and  _311
REMARK  130  A    between atoms: _314  and  _316
REMARK  131  A    between atoms: _316  and  _317
REMARK  132  A    between atoms: _316  and  _319
REMARK  133  A    between atoms: _319  and  _320
REMARK  134  A    between atoms: _320  and  _321
REMARK  135  A    between atoms: _321  and  _322
REMARK  136  A    between atoms: _331  and  _333
REMARK  137  A    between atoms: _333  and  _334
REMARK  138  A    between atoms: _333  and  _336
REMARK  139  A    between atoms: _336  and  _337
REMARK  140  A    between atoms: _340  and  _342
REMARK  141  A    between atoms: _342  and  _343
REMARK  142  A    between atoms: _342  and  _345
REMARK  143  A    between atoms: _345  and  _346
REMARK  144  A    between atoms: _351  and  _353
REMARK  145  A    between atoms: _353  and  _354
REMARK  146  A    between atoms: _353  and  _356
REMARK  147  A    between atoms: _356  and  _357
REMARK  148  A    between atoms: _360  and  _362
REMARK  149  A    between atoms: _362  and  _363
REMARK  150  A    between atoms: _362  and  _365
REMARK  151  A    between atoms: _365  and  _366
REMARK  152  A    between atoms: _369  and  _371
REMARK  153  A    between atoms: _371  and  _372
REMARK  154  A    between atoms: _371  and  _374
REMARK  155  A    between atoms: _374  and  _375
REMARK  156  A    between atoms: _377  and  _379
REMARK  157  A    between atoms: _379  and  _380
REMARK  158  A    between atoms: _379  and  _382
REMARK  159  A    between atoms: _382  and  _383
REMARK  160  A    between atoms: _383  and  _384
REMARK  161  A    between atoms: _384  and  _385
REMARK  162  A    between atoms: _394  and  _396
REMARK  163  A    between atoms: _396  and  _397
REMARK  164  A    between atoms: _401  and  _402
REMARK  165  A    between atoms: _407  and  _409
REMARK  166  A    between atoms: _409  and  _410
REMARK  167  A    between atoms: _409  and  _412
REMARK  168  A    between atoms: _412  and  _413
REMARK  169  A    between atoms: _413  and  _414
REMARK  170  A    between atoms: _416  and  _418
REMARK  171  A    between atoms: _418  and  _419
REMARK  172  A    between atoms: _418  and  _421
REMARK  173  A    between atoms: _421  and  _422
REMARK  174  A    between atoms: _425  and  _427
REMARK  175  A    between atoms: _427  and  _428
REMARK  176  A    between atoms: _427  and  _430
REMARK  177  A    between atoms: _430  and  _431
REMARK  178  A    between atoms: _434  and  _436
REMARK  179  A    between atoms: _436  and  _437
REMARK  180  A    between atoms: _436  and  _439
REMARK  181  A    between atoms: _439  and  _440
REMARK  182  A    between atoms: _440  and  _441
REMARK  183  A    between atoms: _445  and  _446
REMARK  184  A    between atoms: _451  and  _453
REMARK  185  A    between atoms: _453  and  _454
REMARK  186  A    between atoms: _453  and  _456
REMARK  187  A    between atoms: _456  and  _457
REMARK  188  A    between atoms: _457  and  _458
REMARK  189  A    between atoms: _461  and  _463
REMARK  190  A    between atoms: _463  and  _464
REMARK  191  A    between atoms: _463  and  _466
REMARK  192  A    between atoms: _466  and  _467
REMARK  193  A    between atoms: _470  and  _472
REMARK  194  A    between atoms: _472  and  _473
REMARK  195  A    between atoms: _472  and  _475
REMARK  196  A    between atoms: _478  and  _480
REMARK  197  A    between atoms: _480  and  _481
REMARK  198  A    between atoms: _480  and  _483
REMARK  199  A    between atoms: _483  and  _484
REMARK  200  A    between atoms: _484  and  _485
REMARK  201  A    between atoms: _485  and  _486
REMARK  202  A    between atoms: _486  and  _487
REMARK  203  A    between atoms: _491  and  _493
REMARK  204  A    between atoms: _493  and  _494
REMARK  205  A    between atoms: _493  and  _496
REMARK  206  A    between atoms: _496  and  _497
REMARK  207  A    between atoms: _497  and  _498
REMARK  208  A    between atoms: _501  and  _503
REMARK  209  A    between atoms: _503  and  _504
REMARK  210  A    between atoms: _503  and  _506
REMARK  211  A    between atoms: _506  and  _507
REMARK  212  A    between atoms: _509  and  _511
REMARK  213  A    between atoms: _511  and  _512
REMARK  214  A    between atoms: _511  and  _514
REMARK  215  A    between atoms: _514  and  _515
REMARK  216  A    between atoms: _515  and  _516
REMARK  217  A    between atoms: _516  and  _517
REMARK  218  A    between atoms: _526  and  _528
REMARK  219  A    between atoms: _528  and  _529
REMARK  220  A    between atoms: _528  and  _531
REMARK  221  A    between atoms: _531  and  _532
REMARK  222  A    between atoms: _535  and  _537
REMARK  223  A    between atoms: _537  and  _538
REMARK  224  A    between atoms: _537  and  _540
REMARK  225  A    between atoms: _540  and  _541
REMARK  226  A    between atoms: _546  and  _548
REMARK  227  A    between atoms: _548  and  _549
REMARK  228  A    between atoms: _548  and  _551
REMARK  229  A    between atoms: _551  and  _552
REMARK  230  A    between atoms: _552  and  _553
REMARK  231  A    between atoms: _553  and  _554
REMARK  232  A    between atoms: _563  and  _565
REMARK  233  A    between atoms: _565  and  _566
REMARK  234  A    between atoms: _565  and  _568
REMARK  235  A    between atoms: _568  and  _569
REMARK  236  A    between atoms: _572  and  _574
REMARK  237  A    between atoms: _574  and  _575
REMARK  238  A    between atoms: _574  and  _577
REMARK  239  A    between atoms: _577  and  _578
REMARK  240  A    between atoms: _581  and  _583
REMARK  241  A    between atoms: _583  and  _584
REMARK  242  A    between atoms: _583  and  _586
REMARK  243  A    between atoms: _586  and  _587
REMARK                            x       y       z     vdW  Elec       q    Type
REMARK                         _______ _______ _______ _____ _____    ______ ____
ROOT
ATOM      1  O   HOH     1    -126.744  36.970 123.944  0.00  0.00    +0.000 OA
ENDROOT
TORSDOF 0
REMARK  Name = ../refined-set-2016/2pqc/2pqc_pocket.pdb
REMARK  243 active torsions:
REMARK  status: ('A' for Active; 'I' for Inactive)
REMARK    1  A    between atoms: _1  and  _3
REMARK    2  A    between atoms: _3  and  _4
REMARK    3  A    between atoms: _3  and  _6
REMARK    4  A    between atoms: _6  and  _7
REMARK    5  A    between atoms: _10  and  _12
REMARK    6  A    between atoms: _12  and  _13
REMARK    7  A    between atoms: _12  and  _15
REMARK    8  A    between atoms: _15  and  _16
REMARK    9  A    between atoms: _16  and  _17
REMARK   10  A    between atoms: _17  and  _18
REMARK   11  A    between atoms: _18  and  _19
REMARK   12  A    between atoms: _23  and  _25
REMARK   13  A    between atoms: _25  and  _26
REMARK   14  A    between atoms: _25  and  _28
REMARK   15  A    between atoms: _28  and  _29
REMARK   16  A    between atoms: _31  and  _33
REMARK   17  A    between atoms: _33  and  _34
REMARK   18  A    between atoms: _33  and  _36
REMARK   19  A    between atoms: _36  and  _37
REMARK   20  A    between atoms: _40  and  _42
REMARK   21  A    between atoms: _42  and  _43
REMARK   22  A    between atoms: _42  and  _45
REMARK   23  A    between atoms: _45  and  _46
REMARK   24  A    between atoms: _48  and  _50
REMARK   25  A    between atoms: _50  and  _51
REMARK   26  A    between atoms: _50  and  _53
REMARK   27  A    between atoms: _53  and  _54
REMARK   28  A    between atoms: _59  and  _61
REMARK   29  A    between atoms: _61  and  _62
REMARK   30  A    between atoms: _61  and  _64
REMARK   31  A    between atoms: _64  and  _65
REMARK   32  A    between atoms: _65  and  _66
REMARK   33  A    between atoms: _66  and  _67
REMARK   34  A    between atoms: _76  and  _78
REMARK   35  A    between atoms: _78  and  _79
REMARK   36  A    between atoms: _78  and  _81
REMARK   37  A    between atoms: _81  and  _82
REMARK   38  A    between atoms: _85  and  _87
REMARK   39  A    between atoms: _87  and  _88
REMARK   40  A    between atoms: _87  and  _90
REMARK   41  A    between atoms: _90  and  _91
REMARK   42  A    between atoms: _96  and  _98
REMARK   43  A    between atoms: _98  and  _99
REMARK   44  A    between atoms: _102  and  _104
REMARK   45  A    between atoms: _104  and  _105
REMARK   46  A    between atoms: _108  and  _110
REMARK   47  A    between atoms: _110  and  _111
REMARK   48  A    between atoms: _110  and  _113
REMARK   49  A    between atoms: _113  and  _114
REMARK   50  A    between atoms: _117  and  _119
REMARK   51  A    between atoms: _119  and  _120
REMARK   52  A    between atoms: _122  and  _124
REMARK   53  A    between atoms: _124  and  _125
REMARK   54  A    between atoms: _124  and  _127
REMARK   55  A    between atoms: _129  and  _131
REMARK   56  A    between atoms: _131  and  _132
REMARK   57  A    between atoms: _131  and  _134
REMARK   58  A    between atoms: _134  and  _135
REMARK   59  A    between atoms: _135  and  _136
REMARK   60  A    between atoms: _136  and  _137
REMARK   61  A    between atoms: _146  and  _148
REMARK   62  A    between atoms: _148  and  _149
REMARK   63  A    between atoms: _148  and  _151
REMARK   64  A    between atoms: _151  and  _152
REMARK   65  A    between atoms: _155  and  _157
REMARK   66  A    between atoms: _157  and  _158
REMARK   67  A    between atoms: _157  and  _160
REMARK   68  A    between atoms: _160  and  _161
REMARK   69  A    between atoms: _163  and  _165
REMARK   70  A    between atoms: _165  and  _166
REMARK   71  A    between atoms: _165  and  _168
REMARK   72  A    between atoms: _168  and  _169
REMARK   73  A    between atoms: _172  and  _174
REMARK   74  A    between atoms: _174  and  _175
REMARK   75  A    between atoms: _174  and  _177
REMARK   76  A    between atoms: _177  and  _178
REMARK   77  A    between atoms: _178  and  _179
REMARK   78  A    between atoms: _179  and  _180
REMARK   79  A    between atoms: _190  and  _191
REMARK   80  A    between atoms: _196  and  _198
REMARK   81  A    between atoms: _198  and  _199
REMARK   82  A    between atoms: _198  and  _201
REMARK   83  A    between atoms: _201  and  _202
REMARK   84  A    between atoms: _202  and  _203
REMARK   85  A    between atoms: _203  and  _204
REMARK   86  A    between atoms: _213  and  _215
REMARK   87  A    between atoms: _215  and  _216
REMARK   88  A    between atoms: _215  and  _218
REMARK   89  A    between atoms: _221  and  _223
REMARK   90  A    between atoms: _223  and  _224
REMARK   91  A    between atoms: _223  and  _226
REMARK   92  A    between atoms: _229  and  _231
REMARK   93  A    between atoms: _231  and  _232
REMARK   94  A    between atoms: _231  and  _234
REMARK   95  A    between atoms: _234  and  _235
REMARK   96  A    between atoms: _235  and  _236
REMARK   97  A    between atoms: _238  and  _240
REMARK   98  A    between atoms: _240  and  _241
REMARK   99  A    between atoms: _244  and  _246
REMARK  100  A    between atoms: _246  and  _247
REMARK  101  A    between atoms: _246  and  _249
REMARK  102  A    between atoms: _249  and  _250
REMARK  103  A    between atoms: _252  and  _254
REMARK  104  A    between atoms: _254  and  _255
REMARK  105  A    between atoms: _258  and  _260
REMARK  106  A    between atoms: _260  and  _261
REMARK  107  A    between atoms: _260  and  _263
REMARK  108  A    between atoms: _263  and  _264
REMARK  109  A    between atoms: _264  and  _265
REMARK  110  A    between atoms: _270  and  _272
REMARK  111  A    between atoms: _272  and  _273
REMARK  112  A    between atoms: _272  and  _275
REMARK  113  A    between atoms: _278  and  _280
REMARK  114  A    between atoms: _280  and  _281
REMARK  115  A    between atoms: _280  and  _283
REMARK  116  A    between atoms: _283  and  _284
REMARK  117  A    between atoms: _284  and  _285
REMARK  118  A    between atoms: _285  and  _286
REMARK  119  A    between atoms: _286  and  _287
REMARK  120  A    between atoms: _291  and  _293
REMARK  121  A    between atoms: _293  and  _294
REMARK  122  A    between atoms: _293  and  _296
REMARK  123  A    between atoms: _296  and  _297
REMARK  124  A    between atoms: _299  and  _301
REMARK  125  A    between atoms: _301  and  _302
REMARK  126  A    between atoms: _305  and  _307
REMARK  127  A    between atoms: _307  and  _308
REMARK  128  A    between atoms: _307  and  _310
REMARK  129  A    between atoms: _310  and  _311
REMARK  130  A    between atoms: _314  and  _316
REMARK  131  A    between atoms: _316  and  _317
REMARK  132  A    between atoms: _316  and  _319
REMARK  133  A    between atoms: _319  and  _320
REMARK  134  A    between atoms: _320  and  _321
REMARK  135  A    between atoms: _321  and  _322
REMARK  136  A    between atoms: _331  and  _333
REMARK  137  A    between atoms: _333  and  _334
REMARK  138  A    between atoms: _333  and  _336
REMARK  139  A    between atoms: _336  and  _337
REMARK  140  A    between atoms: _340  and  _342
REMARK  141  A    between atoms: _342  and  _343
REMARK  142  A    between atoms: _342  and  _345
REMARK  143  A    between atoms: _345  and  _346
REMARK  144  A    between atoms: _351  and  _353
REMARK  145  A    between atoms: _353  and  _354
REMARK  146  A    between atoms: _353  and  _356
REMARK  147  A    between atoms: _356  and  _357
REMARK  148  A    between atoms: _360  and  _362
REMARK  149  A    between atoms: _362  and  _363
REMARK  150  A    between atoms: _362  and  _365
REMARK  151  A    between atoms: _365  and  _366
REMARK  152  A    between atoms: _369  and  _371
REMARK  153  A    between atoms: _371  and  _372
REMARK  154  A    between atoms: _371  and  _374
REMARK  155  A    between atoms: _374  and  _375
REMARK  156  A    between atoms: _377  and  _379
REMARK  157  A    between atoms: _379  and  _380
REMARK  158  A    between atoms: _379  and  _382
REMARK  159  A    between atoms: _382  and  _383
REMARK  160  A    between atoms: _383  and  _384
REMARK  161  A    between atoms: _384  and  _385
REMARK  162  A    between atoms: _394  and  _396
REMARK  163  A    between atoms: _396  and  _397
REMARK  164  A    between atoms: _401  and  _402
REMARK  165  A    between atoms: _407  and  _409
REMARK  166  A    between atoms: _409  and  _410
REMARK  167  A    between atoms: _409  and  _412
REMARK  168  A    between atoms: _412  and  _413
REMARK  169  A    between atoms: _413  and  _414
REMARK  170  A    between atoms: _416  and  _418
REMARK  171  A    between atoms: _418  and  _419
REMARK  172  A    between atoms: _418  and  _421
REMARK  173  A    between atoms: _421  and  _422
REMARK  174  A    between atoms: _425  and  _427
REMARK  175  A    between atoms: _427  and  _428
REMARK  176  A    between atoms: _427  and  _430
REMARK  177  A    between atoms: _430  and  _431
REMARK  178  A    between atoms: _434  and  _436
REMARK  179  A    between atoms: _436  and  _437
REMARK  180  A    between atoms: _436  and  _439
REMARK  181  A    between atoms: _439  and  _440
REMARK  182  A    between atoms: _440  and  _441
REMARK  183  A    between atoms: _445  and  _446
REMARK  184  A    between atoms: _451  and  _453
REMARK  185  A    between atoms: _453  and  _454
REMARK  186  A    between atoms: _453  and  _456
REMARK  187  A    between atoms: _456  and  _457
REMARK  188  A    between atoms: _457  and  _458
REMARK  189  A    between atoms: _461  and  _463
REMARK  190  A    between atoms: _463  and  _464
REMARK  191  A    between atoms: _463  and  _466
REMARK  192  A    between atoms: _466  and  _467
REMARK  193  A    between atoms: _470  and  _472
REMARK  194  A    between atoms: _472  and  _473
REMARK  195  A    between atoms: _472  and  _475
REMARK  196  A    between atoms: _478  and  _480
REMARK  197  A    between atoms: _480  and  _481
REMARK  198  A    between atoms: _480  and  _483
REMARK  199  A    between atoms: _483  and  _484
REMARK  200  A    between atoms: _484  and  _485
REMARK  201  A    between atoms: _485  and  _486
REMARK  202  A    between atoms: _486  and  _487
REMARK  203  A    between atoms: _491  and  _493
REMARK  204  A    between atoms: _493  and  _494
REMARK  205  A    between atoms: _493  and  _496
REMARK  206  A    between atoms: _496  and  _497
REMARK  207  A    between atoms: _497  and  _498
REMARK  208  A    between atoms: _501  and  _503
REMARK  209  A    between atoms: _503  and  _504
REMARK  210  A    between atoms: _503  and  _506
REMARK  211  A    between atoms: _506  and  _507
REMARK  212  A    between atoms: _509  and  _511
REMARK  213  A    between atoms: _511  and  _512
REMARK  214  A    between atoms: _511  and  _514
REMARK  215  A    between atoms: _514  and  _515
REMARK  216  A    between atoms: _515  and  _516
REMARK  217  A    between atoms: _516  and  _517
REMARK  218  A    between atoms: _526  and  _528
REMARK  219  A    between atoms: _528  and  _529
REMARK  220  A    between atoms: _528  and  _531
REMARK  221  A    between atoms: _531  and  _532
REMARK  222  A    between atoms: _535  and  _537
REMARK  223  A    between atoms: _537  and  _538
REMARK  224  A    between atoms: _537  and  _540
REMARK  225  A    between atoms: _540  and  _541
REMARK  226  A    between atoms: _546  and  _548
REMARK  227  A    between atoms: _548  and  _549
REMARK  228  A    between atoms: _548  and  _551
REMARK  229  A    between atoms: _551  and  _552
REMARK  230  A    between atoms: _552  and  _553
REMARK  231  A    between atoms: _553  and  _554
REMARK  232  A    between atoms: _563  and  _565
REMARK  233  A    between atoms: _565  and  _566
REMARK  234  A    between atoms: _565  and  _568
REMARK  235  A    between atoms: _568  and  _569
REMARK  236  A    between atoms: _572  and  _574
REMARK  237  A    between atoms: _574  and  _575
REMARK  238  A    between atoms: _574  and  _577
REMARK  239  A    between atoms: _577  and  _578
REMARK  240  A    between atoms: _581  and  _583
REMARK  241  A    between atoms: _583  and  _584
REMARK  242  A    between atoms: _583  and  _586
REMARK  243  A    between atoms: _586  and  _587
REMARK                            x       y       z     vdW  Elec       q    Type
REMARK                         _______ _______ _______ _____ _____    ______ ____
ROOT
ATOM      1  O   HOH     1    -132.395  37.750 125.181  0.00  0.00    +0.000 OA
ENDROOT
TORSDOF 0
REMARK  Name = ../refined-set-2016/2pqc/2pqc_pocket.pdb
REMARK  243 active torsions:
REMARK  status: ('A' for Active; 'I' for Inactive)
REMARK    1  A    between atoms: _1  and  _3
REMARK    2  A    between atoms: _3  and  _4
REMARK    3  A    between atoms: _3  and  _6
REMARK    4  A    between atoms: _6  and  _7
REMARK    5  A    between atoms: _10  and  _12
REMARK    6  A    between atoms: _12  and  _13
REMARK    7  A    between atoms: _12  and  _15
REMARK    8  A    between atoms: _15  and  _16
REMARK    9  A    between atoms: _16  and  _17
REMARK   10  A    between atoms: _17  and  _18
REMARK   11  A    between atoms: _18  and  _19
REMARK   12  A    between atoms: _23  and  _25
REMARK   13  A    between atoms: _25  and  _26
REMARK   14  A    between atoms: _25  and  _28
REMARK   15  A    between atoms: _28  and  _29
REMARK   16  A    between atoms: _31  and  _33
REMARK   17  A    between atoms: _33  and  _34
REMARK   18  A    between atoms: _33  and  _36
REMARK   19  A    between atoms: _36  and  _37
REMARK   20  A    between atoms: _40  and  _42
REMARK   21  A    between atoms: _42  and  _43
REMARK   22  A    between atoms: _42  and  _45
REMARK   23  A    between atoms: _45  and  _46
REMARK   24  A    between atoms: _48  and  _50
REMARK   25  A    between atoms: _50  and  _51
REMARK   26  A    between atoms: _50  and  _53
REMARK   27  A    between atoms: _53  and  _54
REMARK   28  A    between atoms: _59  and  _61
REMARK   29  A    between atoms: _61  and  _62
REMARK   30  A    between atoms: _61  and  _64
REMARK   31  A    between atoms: _64  and  _65
REMARK   32  A    between atoms: _65  and  _66
REMARK   33  A    between atoms: _66  and  _67
REMARK   34  A    between atoms: _76  and  _78
REMARK   35  A    between atoms: _78  and  _79
REMARK   36  A    between atoms: _78  and  _81
REMARK   37  A    between atoms: _81  and  _82
REMARK   38  A    between atoms: _85  and  _87
REMARK   39  A    between atoms: _87  and  _88
REMARK   40  A    between atoms: _87  and  _90
REMARK   41  A    between atoms: _90  and  _91
REMARK   42  A    between atoms: _96  and  _98
REMARK   43  A    between atoms: _98  and  _99
REMARK   44  A    between atoms: _102  and  _104
REMARK   45  A    between atoms: _104  and  _105
REMARK   46  A    between atoms: _108  and  _110
REMARK   47  A    between atoms: _110  and  _111
REMARK   48  A    between atoms: _110  and  _113
REMARK   49  A    between atoms: _113  and  _114
REMARK   50  A    between atoms: _117  and  _119
REMARK   51  A    between atoms: _119  and  _120
REMARK   52  A    between atoms: _122  and  _124
REMARK   53  A    between atoms: _124  and  _125
REMARK   54  A    between atoms: _124  and  _127
REMARK   55  A    between atoms: _129  and  _131
REMARK   56  A    between atoms: _131  and  _132
REMARK   57  A    between atoms: _131  and  _134
REMARK   58  A    between atoms: _134  and  _135
REMARK   59  A    between atoms: _135  and  _136
REMARK   60  A    between atoms: _136  and  _137
REMARK   61  A    between atoms: _146  and  _148
REMARK   62  A    between atoms: _148  and  _149
REMARK   63  A    between atoms: _148  and  _151
REMARK   64  A    between atoms: _151  and  _152
REMARK   65  A    between atoms: _155  and  _157
REMARK   66  A    between atoms: _157  and  _158
REMARK   67  A    between atoms: _157  and  _160
REMARK   68  A    between atoms: _160  and  _161
REMARK   69  A    between atoms: _163  and  _165
REMARK   70  A    between atoms: _165  and  _166
REMARK   71  A    between atoms: _165  and  _168
REMARK   72  A    between atoms: _168  and  _169
REMARK   73  A    between atoms: _172  and  _174
REMARK   74  A    between atoms: _174  and  _175
REMARK   75  A    between atoms: _174  and  _177
REMARK   76  A    between atoms: _177  and  _178
REMARK   77  A    between atoms: _178  and  _179
REMARK   78  A    between atoms: _179  and  _180
REMARK   79  A    between atoms: _190  and  _191
REMARK   80  A    between atoms: _196  and  _198
REMARK   81  A    between atoms: _198  and  _199
REMARK   82  A    between atoms: _198  and  _201
REMARK   83  A    between atoms: _201  and  _202
REMARK   84  A    between atoms: _202  and  _203
REMARK   85  A    between atoms: _203  and  _204
REMARK   86  A    between atoms: _213  and  _215
REMARK   87  A    between atoms: _215  and  _216
REMARK   88  A    between atoms: _215  and  _218
REMARK   89  A    between atoms: _221  and  _223
REMARK   90  A    between atoms: _223  and  _224
REMARK   91  A    between atoms: _223  and  _226
REMARK   92  A    between atoms: _229  and  _231
REMARK   93  A    between atoms: _231  and  _232
REMARK   94  A    between atoms: _231  and  _234
REMARK   95  A    between atoms: _234  and  _235
REMARK   96  A    between atoms: _235  and  _236
REMARK   97  A    between atoms: _238  and  _240
REMARK   98  A    between atoms: _240  and  _241
REMARK   99  A    between atoms: _244  and  _246
REMARK  100  A    between atoms: _246  and  _247
REMARK  101  A    between atoms: _246  and  _249
REMARK  102  A    between atoms: _249  and  _250
REMARK  103  A    between atoms: _252  and  _254
REMARK  104  A    between atoms: _254  and  _255
REMARK  105  A    between atoms: _258  and  _260
REMARK  106  A    between atoms: _260  and  _261
REMARK  107  A    between atoms: _260  and  _263
REMARK  108  A    between atoms: _263  and  _264
REMARK  109  A    between atoms: _264  and  _265
REMARK  110  A    between atoms: _270  and  _272
REMARK  111  A    between atoms: _272  and  _273
REMARK  112  A    between atoms: _272  and  _275
REMARK  113  A    between atoms: _278  and  _280
REMARK  114  A    between atoms: _280  and  _281
REMARK  115  A    between atoms: _280  and  _283
REMARK  116  A    between atoms: _283  and  _284
REMARK  117  A    between atoms: _284  and  _285
REMARK  118  A    between atoms: _285  and  _286
REMARK  119  A    between atoms: _286  and  _287
REMARK  120  A    between atoms: _291  and  _293
REMARK  121  A    between atoms: _293  and  _294
REMARK  122  A    between atoms: _293  and  _296
REMARK  123  A    between atoms: _296  and  _297
REMARK  124  A    between atoms: _299  and  _301
REMARK  125  A    between atoms: _301  and  _302
REMARK  126  A    between atoms: _305  and  _307
REMARK  127  A    between atoms: _307  and  _308
REMARK  128  A    between atoms: _307  and  _310
REMARK  129  A    between atoms: _310  and  _311
REMARK  130  A    between atoms: _314  and  _316
REMARK  131  A    between atoms: _316  and  _317
REMARK  132  A    between atoms: _316  and  _319
REMARK  133  A    between atoms: _319  and  _320
REMARK  134  A    between atoms: _320  and  _321
REMARK  135  A    between atoms: _321  and  _322
REMARK  136  A    between atoms: _331  and  _333
REMARK  137  A    between atoms: _333  and  _334
REMARK  138  A    between atoms: _333  and  _336
REMARK  139  A    between atoms: _336  and  _337
REMARK  140  A    between atoms: _340  and  _342
REMARK  141  A    between atoms: _342  and  _343
REMARK  142  A    between atoms: _342  and  _345
REMARK  143  A    between atoms: _345  and  _346
REMARK  144  A    between atoms: _351  and  _353
REMARK  145  A    between atoms: _353  and  _354
REMARK  146  A    between atoms: _353  and  _356
REMARK  147  A    between atoms: _356  and  _357
REMARK  148  A    between atoms: _360  and  _362
REMARK  149  A    between atoms: _362  and  _363
REMARK  150  A    between atoms: _362  and  _365
REMARK  151  A    between atoms: _365  and  _366
REMARK  152  A    between atoms: _369  and  _371
REMARK  153  A    between atoms: _371  and  _372
REMARK  154  A    between atoms: _371  and  _374
REMARK  155  A    between atoms: _374  and  _375
REMARK  156  A    between atoms: _377  and  _379
REMARK  157  A    between atoms: _379  and  _380
REMARK  158  A    between atoms: _379  and  _382
REMARK  159  A    between atoms: _382  and  _383
REMARK  160  A    between atoms: _383  and  _384
REMARK  161  A    between atoms: _384  and  _385
REMARK  162  A    between atoms: _394  and  _396
REMARK  163  A    between atoms: _396  and  _397
REMARK  164  A    between atoms: _401  and  _402
REMARK  165  A    between atoms: _407  and  _409
REMARK  166  A    between atoms: _409  and  _410
REMARK  167  A    between atoms: _409  and  _412
REMARK  168  A    between atoms: _412  and  _413
REMARK  169  A    between atoms: _413  and  _414
REMARK  170  A    between atoms: _416  and  _418
REMARK  171  A    between atoms: _418  and  _419
REMARK  172  A    between atoms: _418  and  _421
REMARK  173  A    between atoms: _421  and  _422
REMARK  174  A    between atoms: _425  and  _427
REMARK  175  A    between atoms: _427  and  _428
REMARK  176  A    between atoms: _427  and  _430
REMARK  177  A    between atoms: _430  and  _431
REMARK  178  A    between atoms: _434  and  _436
REMARK  179  A    between atoms: _436  and  _437
REMARK  180  A    between atoms: _436  and  _439
REMARK  181  A    between atoms: _439  and  _440
REMARK  182  A    between atoms: _440  and  _441
REMARK  183  A    between atoms: _445  and  _446
REMARK  184  A    between atoms: _451  and  _453
REMARK  185  A    between atoms: _453  and  _454
REMARK  186  A    between atoms: _453  and  _456
REMARK  187  A    between atoms: _456  and  _457
REMARK  188  A    between atoms: _457  and  _458
REMARK  189  A    between atoms: _461  and  _463
REMARK  190  A    between atoms: _463  and  _464
REMARK  191  A    between atoms: _463  and  _466
REMARK  192  A    between atoms: _466  and  _467
REMARK  193  A    between atoms: _470  and  _472
REMARK  194  A    between atoms: _472  and  _473
REMARK  195  A    between atoms: _472  and  _475
REMARK  196  A    between atoms: _478  and  _480
REMARK  197  A    between atoms: _480  and  _481
REMARK  198  A    between atoms: _480  and  _483
REMARK  199  A    between atoms: _483  and  _484
REMARK  200  A    between atoms: _484  and  _485
REMARK  201  A    between atoms: _485  and  _486
REMARK  202  A    between atoms: _486  and  _487
REMARK  203  A    between atoms: _491  and  _493
REMARK  204  A    between atoms: _493  and  _494
REMARK  205  A    between atoms: _493  and  _496
REMARK  206  A    between atoms: _496  and  _497
REMARK  207  A    between atoms: _497  and  _498
REMARK  208  A    between atoms: _501  and  _503
REMARK  209  A    between atoms: _503  and  _504
REMARK  210  A    between atoms: _503  and  _506
REMARK  211  A    between atoms: _506  and  _507
REMARK  212  A    between atoms: _509  and  _511
REMARK  213  A    between atoms: _511  and  _512
REMARK  214  A    between atoms: _511  and  _514
REMARK  215  A    between atoms: _514  and  _515
REMARK  216  A    between atoms: _515  and  _516
REMARK  217  A    between atoms: _516  and  _517
REMARK  218  A    between atoms: _526  and  _528
REMARK  219  A    between atoms: _528  and  _529
REMARK  220  A    between atoms: _528  and  _531
REMARK  221  A    between atoms: _531  and  _532
REMARK  222  A    between atoms: _535  and  _537
REMARK  223  A    between atoms: _537  and  _538
REMARK  224  A    between atoms: _537  and  _540
REMARK  225  A    between atoms: _540  and  _541
REMARK  226  A    between atoms: _546  and  _548
REMARK  227  A    between atoms: _548  and  _549
REMARK  228  A    between atoms: _548  and  _551
REMARK  229  A    between atoms: _551  and  _552
REMARK  230  A    between atoms: _552  and  _553
REMARK  231  A    between atoms: _553  and  _554
REMARK  232  A    between atoms: _563  and  _565
REMARK  233  A    between atoms: _565  and  _566
REMARK  234  A    between atoms: _565  and  _568
REMARK  235  A    between atoms: _568  and  _569
REMARK  236  A    between atoms: _572  and  _574
REMARK  237  A    between atoms: _574  and  _575
REMARK  238  A    between atoms: _574  and  _577
REMARK  239  A    between atoms: _577  and  _578
REMARK  240  A    between atoms: _581  and  _583
REMARK  241  A    between atoms: _583  and  _584
REMARK  242  A    between atoms: _583  and  _586
REMARK  243  A    between atoms: _586  and  _587
REMARK                            x       y       z     vdW  Elec       q    Type
REMARK                         _______ _______ _______ _____ _____    ______ ____
ROOT
ATOM      1  O   HOH     1    -128.526  35.430 116.179  0.00  0.00    +0.000 OA
ENDROOT
TORSDOF 0
REMARK  Name = ../refined-set-2016/2pqc/2pqc_pocket.pdb
REMARK  243 active torsions:
REMARK  status: ('A' for Active; 'I' for Inactive)
REMARK    1  A    between atoms: _1  and  _3
REMARK    2  A    between atoms: _3  and  _4
REMARK    3  A    between atoms: _3  and  _6
REMARK    4  A    between atoms: _6  and  _7
REMARK    5  A    between atoms: _10  and  _12
REMARK    6  A    between atoms: _12  and  _13
REMARK    7  A    between atoms: _12  and  _15
REMARK    8  A    between atoms: _15  and  _16
REMARK    9  A    between atoms: _16  and  _17
REMARK   10  A    between atoms: _17  and  _18
REMARK   11  A    between atoms: _18  and  _19
REMARK   12  A    between atoms: _23  and  _25
REMARK   13  A    between atoms: _25  and  _26
REMARK   14  A    between atoms: _25  and  _28
REMARK   15  A    between atoms: _28  and  _29
REMARK   16  A    between atoms: _31  and  _33
REMARK   17  A    between atoms: _33  and  _34
REMARK   18  A    between atoms: _33  and  _36
REMARK   19  A    between atoms: _36  and  _37
REMARK   20  A    between atoms: _40  and  _42
REMARK   21  A    between atoms: _42  and  _43
REMARK   22  A    between atoms: _42  and  _45
REMARK   23  A    between atoms: _45  and  _46
REMARK   24  A    between atoms: _48  and  _50
REMARK   25  A    between atoms: _50  and  _51
REMARK   26  A    between atoms: _50  and  _53
REMARK   27  A    between atoms: _53  and  _54
REMARK   28  A    between atoms: _59  and  _61
REMARK   29  A    between atoms: _61  and  _62
REMARK   30  A    between atoms: _61  and  _64
REMARK   31  A    between atoms: _64  and  _65
REMARK   32  A    between atoms: _65  and  _66
REMARK   33  A    between atoms: _66  and  _67
REMARK   34  A    between atoms: _76  and  _78
REMARK   35  A    between atoms: _78  and  _79
REMARK   36  A    between atoms: _78  and  _81
REMARK   37  A    between atoms: _81  and  _82
REMARK   38  A    between atoms: _85  and  _87
REMARK   39  A    between atoms: _87  and  _88
REMARK   40  A    between atoms: _87  and  _90
REMARK   41  A    between atoms: _90  and  _91
REMARK   42  A    between atoms: _96  and  _98
REMARK   43  A    between atoms: _98  and  _99
REMARK   44  A    between atoms: _102  and  _104
REMARK   45  A    between atoms: _104  and  _105
REMARK   46  A    between atoms: _108  and  _110
REMARK   47  A    between atoms: _110  and  _111
REMARK   48  A    between atoms: _110  and  _113
REMARK   49  A    between atoms: _113  and  _114
REMARK   50  A    between atoms: _117  and  _119
REMARK   51  A    between atoms: _119  and  _120
REMARK   52  A    between atoms: _122  and  _124
REMARK   53  A    between atoms: _124  and  _125
REMARK   54  A    between atoms: _124  and  _127
REMARK   55  A    between atoms: _129  and  _131
REMARK   56  A    between atoms: _131  and  _132
REMARK   57  A    between atoms: _131  and  _134
REMARK   58  A    between atoms: _134  and  _135
REMARK   59  A    between atoms: _135  and  _136
REMARK   60  A    between atoms: _136  and  _137
REMARK   61  A    between atoms: _146  and  _148
REMARK   62  A    between atoms: _148  and  _149
REMARK   63  A    between atoms: _148  and  _151
REMARK   64  A    between atoms: _151  and  _152
REMARK   65  A    between atoms: _155  and  _157
REMARK   66  A    between atoms: _157  and  _158
REMARK   67  A    between atoms: _157  and  _160
REMARK   68  A    between atoms: _160  and  _161
REMARK   69  A    between atoms: _163  and  _165
REMARK   70  A    between atoms: _165  and  _166
REMARK   71  A    between atoms: _165  and  _168
REMARK   72  A    between atoms: _168  and  _169
REMARK   73  A    between atoms: _172  and  _174
REMARK   74  A    between atoms: _174  and  _175
REMARK   75  A    between atoms: _174  and  _177
REMARK   76  A    between atoms: _177  and  _178
REMARK   77  A    between atoms: _178  and  _179
REMARK   78  A    between atoms: _179  and  _180
REMARK   79  A    between atoms: _190  and  _191
REMARK   80  A    between atoms: _196  and  _198
REMARK   81  A    between atoms: _198  and  _199
REMARK   82  A    between atoms: _198  and  _201
REMARK   83  A    between atoms: _201  and  _202
REMARK   84  A    between atoms: _202  and  _203
REMARK   85  A    between atoms: _203  and  _204
REMARK   86  A    between atoms: _213  and  _215
REMARK   87  A    between atoms: _215  and  _216
REMARK   88  A    between atoms: _215  and  _218
REMARK   89  A    between atoms: _221  and  _223
REMARK   90  A    between atoms: _223  and  _224
REMARK   91  A    between atoms: _223  and  _226
REMARK   92  A    between atoms: _229  and  _231
REMARK   93  A    between atoms: _231  and  _232
REMARK   94  A    between atoms: _231  and  _234
REMARK   95  A    between atoms: _234  and  _235
REMARK   96  A    between atoms: _235  and  _236
REMARK   97  A    between atoms: _238  and  _240
REMARK   98  A    between atoms: _240  and  _241
REMARK   99  A    between atoms: _244  and  _246
REMARK  100  A    between atoms: _246  and  _247
REMARK  101  A    between atoms: _246  and  _249
REMARK  102  A    between atoms: _249  and  _250
REMARK  103  A    between atoms: _252  and  _254
REMARK  104  A    between atoms: _254  and  _255
REMARK  105  A    between atoms: _258  and  _260
REMARK  106  A    between atoms: _260  and  _261
REMARK  107  A    between atoms: _260  and  _263
REMARK  108  A    between atoms: _263  and  _264
REMARK  109  A    between atoms: _264  and  _265
REMARK  110  A    between atoms: _270  and  _272
REMARK  111  A    between atoms: _272  and  _273
REMARK  112  A    between atoms: _272  and  _275
REMARK  113  A    between atoms: _278  and  _280
REMARK  114  A    between atoms: _280  and  _281
REMARK  115  A    between atoms: _280  and  _283
REMARK  116  A    between atoms: _283  and  _284
REMARK  117  A    between atoms: _284  and  _285
REMARK  118  A    between atoms: _285  and  _286
REMARK  119  A    between atoms: _286  and  _287
REMARK  120  A    between atoms: _291  and  _293
REMARK  121  A    between atoms: _293  and  _294
REMARK  122  A    between atoms: _293  and  _296
REMARK  123  A    between atoms: _296  and  _297
REMARK  124  A    between atoms: _299  and  _301
REMARK  125  A    between atoms: _301  and  _302
REMARK  126  A    between atoms: _305  and  _307
REMARK  127  A    between atoms: _307  and  _308
REMARK  128  A    between atoms: _307  and  _310
REMARK  129  A    between atoms: _310  and  _311
REMARK  130  A    between atoms: _314  and  _316
REMARK  131  A    between atoms: _316  and  _317
REMARK  132  A    between atoms: _316  and  _319
REMARK  133  A    between atoms: _319  and  _320
REMARK  134  A    between atoms: _320  and  _321
REMARK  135  A    between atoms: _321  and  _322
REMARK  136  A    between atoms: _331  and  _333
REMARK  137  A    between atoms: _333  and  _334
REMARK  138  A    between atoms: _333  and  _336
REMARK  139  A    between atoms: _336  and  _337
REMARK  140  A    between atoms: _340  and  _342
REMARK  141  A    between atoms: _342  and  _343
REMARK  142  A    between atoms: _342  and  _345
REMARK  143  A    between atoms: _345  and  _346
REMARK  144  A    between atoms: _351  and  _353
REMARK  145  A    between atoms: _353  and  _354
REMARK  146  A    between atoms: _353  and  _356
REMARK  147  A    between atoms: _356  and  _357
REMARK  148  A    between atoms: _360  and  _362
REMARK  149  A    between atoms: _362  and  _363
REMARK  150  A    between atoms: _362  and  _365
REMARK  151  A    between atoms: _365  and  _366
REMARK  152  A    between atoms: _369  and  _371
REMARK  153  A    between atoms: _371  and  _372
REMARK  154  A    between atoms: _371  and  _374
REMARK  155  A    between atoms: _374  and  _375
REMARK  156  A    between atoms: _377  and  _379
REMARK  157  A    between atoms: _379  and  _380
REMARK  158  A    between atoms: _379  and  _382
REMARK  159  A    between atoms: _382  and  _383
REMARK  160  A    between atoms: _383  and  _384
REMARK  161  A    between atoms: _384  and  _385
REMARK  162  A    between atoms: _394  and  _396
REMARK  163  A    between atoms: _396  and  _397
REMARK  164  A    between atoms: _401  and  _402
REMARK  165  A    between atoms: _407  and  _409
REMARK  166  A    between atoms: _409  and  _410
REMARK  167  A    between atoms: _409  and  _412
REMARK  168  A    between atoms: _412  and  _413
REMARK  169  A    between atoms: _413  and  _414
REMARK  170  A    between atoms: _416  and  _418
REMARK  171  A    between atoms: _418  and  _419
REMARK  172  A    between atoms: _418  and  _421
REMARK  173  A    between atoms: _421  and  _422
REMARK  174  A    between atoms: _425  and  _427
REMARK  175  A    between atoms: _427  and  _428
REMARK  176  A    between atoms: _427  and  _430
REMARK  177  A    between atoms: _430  and  _431
REMARK  178  A    between atoms: _434  and  _436
REMARK  179  A    between atoms: _436  and  _437
REMARK  180  A    between atoms: _436  and  _439
REMARK  181  A    between atoms: _439  and  _440
REMARK  182  A    between atoms: _440  and  _441
REMARK  183  A    between atoms: _445  and  _446
REMARK  184  A    between atoms: _451  and  _453
REMARK  185  A    between atoms: _453  and  _454
REMARK  186  A    between atoms: _453  and  _456
REMARK  187  A    between atoms: _456  and  _457
REMARK  188  A    between atoms: _457  and  _458
REMARK  189  A    between atoms: _461  and  _463
REMARK  190  A    between atoms: _463  and  _464
REMARK  191  A    between atoms: _463  and  _466
REMARK  192  A    between atoms: _466  and  _467
REMARK  193  A    between atoms: _470  and  _472
REMARK  194  A    between atoms: _472  and  _473
REMARK  195  A    between atoms: _472  and  _475
REMARK  196  A    between atoms: _478  and  _480
REMARK  197  A    between atoms: _480  and  _481
REMARK  198  A    between atoms: _480  and  _483
REMARK  199  A    between atoms: _483  and  _484
REMARK  200  A    between atoms: _484  and  _485
REMARK  201  A    between atoms: _485  and  _486
REMARK  202  A    between atoms: _486  and  _487
REMARK  203  A    between atoms: _491  and  _493
REMARK  204  A    between atoms: _493  and  _494
REMARK  205  A    between atoms: _493  and  _496
REMARK  206  A    between atoms: _496  and  _497
REMARK  207  A    between atoms: _497  and  _498
REMARK  208  A    between atoms: _501  and  _503
REMARK  209  A    between atoms: _503  and  _504
REMARK  210  A    between atoms: _503  and  _506
REMARK  211  A    between atoms: _506  and  _507
REMARK  212  A    between atoms: _509  and  _511
REMARK  213  A    between atoms: _511  and  _512
REMARK  214  A    between atoms: _511  and  _514
REMARK  215  A    between atoms: _514  and  _515
REMARK  216  A    between atoms: _515  and  _516
REMARK  217  A    between atoms: _516  and  _517
REMARK  218  A    between atoms: _526  and  _528
REMARK  219  A    between atoms: _528  and  _529
REMARK  220  A    between atoms: _528  and  _531
REMARK  221  A    between atoms: _531  and  _532
REMARK  222  A    between atoms: _535  and  _537
REMARK  223  A    between atoms: _537  and  _538
REMARK  224  A    between atoms: _537  and  _540
REMARK  225  A    between atoms: _540  and  _541
REMARK  226  A    between atoms: _546  and  _548
REMARK  227  A    between atoms: _548  and  _549
REMARK  228  A    between atoms: _548  and  _551
REMARK  229  A    between atoms: _551  and  _552
REMARK  230  A    between atoms: _552  and  _553
REMARK  231  A    between atoms: _553  and  _554
REMARK  232  A    between atoms: _563  and  _565
REMARK  233  A    between atoms: _565  and  _566
REMARK  234  A    between atoms: _565  and  _568
REMARK  235  A    between atoms: _568  and  _569
REMARK  236  A    between atoms: _572  and  _574
REMARK  237  A    between atoms: _574  and  _575
REMARK  238  A    between atoms: _574  and  _577
REMARK  239  A    between atoms: _577  and  _578
REMARK  240  A    between atoms: _581  and  _583
REMARK  241  A    between atoms: _583  and  _584
REMARK  242  A    between atoms: _583  and  _586
REMARK  243  A    between atoms: _586  and  _587
REMARK                            x       y       z     vdW  Elec       q    Type
REMARK                         _______ _______ _______ _____ _____    ______ ____
ROOT
ATOM      1  O   HOH     1    -126.231  34.737 122.374  0.00  0.00    +0.000 OA
ENDROOT
TORSDOF 0
REMARK  Name = ../refined-set-2016/2pqc/2pqc_pocket.pdb
REMARK  243 active torsions:
REMARK  status: ('A' for Active; 'I' for Inactive)
REMARK    1  A    between atoms: _1  and  _3
REMARK    2  A    between atoms: _3  and  _4
REMARK    3  A    between atoms: _3  and  _6
REMARK    4  A    between atoms: _6  and  _7
REMARK    5  A    between atoms: _10  and  _12
REMARK    6  A    between atoms: _12  and  _13
REMARK    7  A    between atoms: _12  and  _15
REMARK    8  A    between atoms: _15  and  _16
REMARK    9  A    between atoms: _16  and  _17
REMARK   10  A    between atoms: _17  and  _18
REMARK   11  A    between atoms: _18  and  _19
REMARK   12  A    between atoms: _23  and  _25
REMARK   13  A    between atoms: _25  and  _26
REMARK   14  A    between atoms: _25  and  _28
REMARK   15  A    between atoms: _28  and  _29
REMARK   16  A    between atoms: _31  and  _33
REMARK   17  A    between atoms: _33  and  _34
REMARK   18  A    between atoms: _33  and  _36
REMARK   19  A    between atoms: _36  and  _37
REMARK   20  A    between atoms: _40  and  _42
REMARK   21  A    between atoms: _42  and  _43
REMARK   22  A    between atoms: _42  and  _45
REMARK   23  A    between atoms: _45  and  _46
REMARK   24  A    between atoms: _48  and  _50
REMARK   25  A    between atoms: _50  and  _51
REMARK   26  A    between atoms: _50  and  _53
REMARK   27  A    between atoms: _53  and  _54
REMARK   28  A    between atoms: _59  and  _61
REMARK   29  A    between atoms: _61  and  _62
REMARK   30  A    between atoms: _61  and  _64
REMARK   31  A    between atoms: _64  and  _65
REMARK   32  A    between atoms: _65  and  _66
REMARK   33  A    between atoms: _66  and  _67
REMARK   34  A    between atoms: _76  and  _78
REMARK   35  A    between atoms: _78  and  _79
REMARK   36  A    between atoms: _78  and  _81
REMARK   37  A    between atoms: _81  and  _82
REMARK   38  A    between atoms: _85  and  _87
REMARK   39  A    between atoms: _87  and  _88
REMARK   40  A    between atoms: _87  and  _90
REMARK   41  A    between atoms: _90  and  _91
REMARK   42  A    between atoms: _96  and  _98
REMARK   43  A    between atoms: _98  and  _99
REMARK   44  A    between atoms: _102  and  _104
REMARK   45  A    between atoms: _104  and  _105
REMARK   46  A    between atoms: _108  and  _110
REMARK   47  A    between atoms: _110  and  _111
REMARK   48  A    between atoms: _110  and  _113
REMARK   49  A    between atoms: _113  and  _114
REMARK   50  A    between atoms: _117  and  _119
REMARK   51  A    between atoms: _119  and  _120
REMARK   52  A    between atoms: _122  and  _124
REMARK   53  A    between atoms: _124  and  _125
REMARK   54  A    between atoms: _124  and  _127
REMARK   55  A    between atoms: _129  and  _131
REMARK   56  A    between atoms: _131  and  _132
REMARK   57  A    between atoms: _131  and  _134
REMARK   58  A    between atoms: _134  and  _135
REMARK   59  A    between atoms: _135  and  _136
REMARK   60  A    between atoms: _136  and  _137
REMARK   61  A    between atoms: _146  and  _148
REMARK   62  A    between atoms: _148  and  _149
REMARK   63  A    between atoms: _148  and  _151
REMARK   64  A    between atoms: _151  and  _152
REMARK   65  A    between atoms: _155  and  _157
REMARK   66  A    between atoms: _157  and  _158
REMARK   67  A    between atoms: _157  and  _160
REMARK   68  A    between atoms: _160  and  _161
REMARK   69  A    between atoms: _163  and  _165
REMARK   70  A    between atoms: _165  and  _166
REMARK   71  A    between atoms: _165  and  _168
REMARK   72  A    between atoms: _168  and  _169
REMARK   73  A    between atoms: _172  and  _174
REMARK   74  A    between atoms: _174  and  _175
REMARK   75  A    between atoms: _174  and  _177
REMARK   76  A    between atoms: _177  and  _178
REMARK   77  A    between atoms: _178  and  _179
REMARK   78  A    between atoms: _179  and  _180
REMARK   79  A    between atoms: _190  and  _191
REMARK   80  A    between atoms: _196  and  _198
REMARK   81  A    between atoms: _198  and  _199
REMARK   82  A    between atoms: _198  and  _201
REMARK   83  A    between atoms: _201  and  _202
REMARK   84  A    between atoms: _202  and  _203
REMARK   85  A    between atoms: _203  and  _204
REMARK   86  A    between atoms: _213  and  _215
REMARK   87  A    between atoms: _215  and  _216
REMARK   88  A    between atoms: _215  and  _218
REMARK   89  A    between atoms: _221  and  _223
REMARK   90  A    between atoms: _223  and  _224
REMARK   91  A    between atoms: _223  and  _226
REMARK   92  A    between atoms: _229  and  _231
REMARK   93  A    between atoms: _231  and  _232
REMARK   94  A    between atoms: _231  and  _234
REMARK   95  A    between atoms: _234  and  _235
REMARK   96  A    between atoms: _235  and  _236
REMARK   97  A    between atoms: _238  and  _240
REMARK   98  A    between atoms: _240  and  _241
REMARK   99  A    between atoms: _244  and  _246
REMARK  100  A    between atoms: _246  and  _247
REMARK  101  A    between atoms: _246  and  _249
REMARK  102  A    between atoms: _249  and  _250
REMARK  103  A    between atoms: _252  and  _254
REMARK  104  A    between atoms: _254  and  _255
REMARK  105  A    between atoms: _258  and  _260
REMARK  106  A    between atoms: _260  and  _261
REMARK  107  A    between atoms: _260  and  _263
REMARK  108  A    between atoms: _263  and  _264
REMARK  109  A    between atoms: _264  and  _265
REMARK  110  A    between atoms: _270  and  _272
REMARK  111  A    between atoms: _272  and  _273
REMARK  112  A    between atoms: _272  and  _275
REMARK  113  A    between atoms: _278  and  _280
REMARK  114  A    between atoms: _280  and  _281
REMARK  115  A    between atoms: _280  and  _283
REMARK  116  A    between atoms: _283  and  _284
REMARK  117  A    between atoms: _284  and  _285
REMARK  118  A    between atoms: _285  and  _286
REMARK  119  A    between atoms: _286  and  _287
REMARK  120  A    between atoms: _291  and  _293
REMARK  121  A    between atoms: _293  and  _294
REMARK  122  A    between atoms: _293  and  _296
REMARK  123  A    between atoms: _296  and  _297
REMARK  124  A    between atoms: _299  and  _301
REMARK  125  A    between atoms: _301  and  _302
REMARK  126  A    between atoms: _305  and  _307
REMARK  127  A    between atoms: _307  and  _308
REMARK  128  A    between atoms: _307  and  _310
REMARK  129  A    between atoms: _310  and  _311
REMARK  130  A    between atoms: _314  and  _316
REMARK  131  A    between atoms: _316  and  _317
REMARK  132  A    between atoms: _316  and  _319
REMARK  133  A    between atoms: _319  and  _320
REMARK  134  A    between atoms: _320  and  _321
REMARK  135  A    between atoms: _321  and  _322
REMARK  136  A    between atoms: _331  and  _333
REMARK  137  A    between atoms: _333  and  _334
REMARK  138  A    between atoms: _333  and  _336
REMARK  139  A    between atoms: _336  and  _337
REMARK  140  A    between atoms: _340  and  _342
REMARK  141  A    between atoms: _342  and  _343
REMARK  142  A    between atoms: _342  and  _345
REMARK  143  A    between atoms: _345  and  _346
REMARK  144  A    between atoms: _351  and  _353
REMARK  145  A    between atoms: _353  and  _354
REMARK  146  A    between atoms: _353  and  _356
REMARK  147  A    between atoms: _356  and  _357
REMARK  148  A    between atoms: _360  and  _362
REMARK  149  A    between atoms: _362  and  _363
REMARK  150  A    between atoms: _362  and  _365
REMARK  151  A    between atoms: _365  and  _366
REMARK  152  A    between atoms: _369  and  _371
REMARK  153  A    between atoms: _371  and  _372
REMARK  154  A    between atoms: _371  and  _374
REMARK  155  A    between atoms: _374  and  _375
REMARK  156  A    between atoms: _377  and  _379
REMARK  157  A    between atoms: _379  and  _380
REMARK  158  A    between atoms: _379  and  _382
REMARK  159  A    between atoms: _382  and  _383
REMARK  160  A    between atoms: _383  and  _384
REMARK  161  A    between atoms: _384  and  _385
REMARK  162  A    between atoms: _394  and  _396
REMARK  163  A    between atoms: _396  and  _397
REMARK  164  A    between atoms: _401  and  _402
REMARK  165  A    between atoms: _407  and  _409
REMARK  166  A    between atoms: _409  and  _410
REMARK  167  A    between atoms: _409  and  _412
REMARK  168  A    between atoms: _412  and  _413
REMARK  169  A    between atoms: _413  and  _414
REMARK  170  A    between atoms: _416  and  _418
REMARK  171  A    between atoms: _418  and  _419
REMARK  172  A    between atoms: _418  and  _421
REMARK  173  A    between atoms: _421  and  _422
REMARK  174  A    between atoms: _425  and  _427
REMARK  175  A    between atoms: _427  and  _428
REMARK  176  A    between atoms: _427  and  _430
REMARK  177  A    between atoms: _430  and  _431
REMARK  178  A    between atoms: _434  and  _436
REMARK  179  A    between atoms: _436  and  _437
REMARK  180  A    between atoms: _436  and  _439
REMARK  181  A    between atoms: _439  and  _440
REMARK  182  A    between atoms: _440  and  _441
REMARK  183  A    between atoms: _445  and  _446
REMARK  184  A    between atoms: _451  and  _453
REMARK  185  A    between atoms: _453  and  _454
REMARK  186  A    between atoms: _453  and  _456
REMARK  187  A    between atoms: _456  and  _457
REMARK  188  A    between atoms: _457  and  _458
REMARK  189  A    between atoms: _461  and  _463
REMARK  190  A    between atoms: _463  and  _464
REMARK  191  A    between atoms: _463  and  _466
REMARK  192  A    between atoms: _466  and  _467
REMARK  193  A    between atoms: _470  and  _472
REMARK  194  A    between atoms: _472  and  _473
REMARK  195  A    between atoms: _472  and  _475
REMARK  196  A    between atoms: _478  and  _480
REMARK  197  A    between atoms: _480  and  _481
REMARK  198  A    between atoms: _480  and  _483
REMARK  199  A    between atoms: _483  and  _484
REMARK  200  A    between atoms: _484  and  _485
REMARK  201  A    between atoms: _485  and  _486
REMARK  202  A    between atoms: _486  and  _487
REMARK  203  A    between atoms: _491  and  _493
REMARK  204  A    between atoms: _493  and  _494
REMARK  205  A    between atoms: _493  and  _496
REMARK  206  A    between atoms: _496  and  _497
REMARK  207  A    between atoms: _497  and  _498
REMARK  208  A    between atoms: _501  and  _503
REMARK  209  A    between atoms: _503  and  _504
REMARK  210  A    between atoms: _503  and  _506
REMARK  211  A    between atoms: _506  and  _507
REMARK  212  A    between atoms: _509  and  _511
REMARK  213  A    between atoms: _511  and  _512
REMARK  214  A    between atoms: _511  and  _514
REMARK  215  A    between atoms: _514  and  _515
REMARK  216  A    between atoms: _515  and  _516
REMARK  217  A    between atoms: _516  and  _517
REMARK  218  A    between atoms: _526  and  _528
REMARK  219  A    between atoms: _528  and  _529
REMARK  220  A    between atoms: _528  and  _531
REMARK  221  A    between atoms: _531  and  _532
REMARK  222  A    between atoms: _535  and  _537
REMARK  223  A    between atoms: _537  and  _538
REMARK  224  A    between atoms: _537  and  _540
REMARK  225  A    between atoms: _540  and  _541
REMARK  226  A    between atoms: _546  and  _548
REMARK  227  A    between atoms: _548  and  _549
REMARK  228  A    between atoms: _548  and  _551
REMARK  229  A    between atoms: _551  and  _552
REMARK  230  A    between atoms: _552  and  _553
REMARK  231  A    between atoms: _553  and  _554
REMARK  232  A    between atoms: _563  and  _565
REMARK  233  A    between atoms: _565  and  _566
REMARK  234  A    between atoms: _565  and  _568
REMARK  235  A    between atoms: _568  and  _569
REMARK  236  A    between atoms: _572  and  _574
REMARK  237  A    between atoms: _574  and  _575
REMARK  238  A    between atoms: _574  and  _577
REMARK  239  A    between atoms: _577  and  _578
REMARK  240  A    between atoms: _581  and  _583
REMARK  241  A    between atoms: _583  and  _584
REMARK  242  A    between atoms: _583  and  _586
REMARK  243  A    between atoms: _586  and  _587
REMARK                            x       y       z     vdW  Elec       q    Type
REMARK                         _______ _______ _______ _____ _____    ______ ____
ROOT
ATOM      1  O   HOH     1    -120.561  35.399 128.274  0.00  0.00    +0.000 OA
ENDROOT
TORSDOF 0
REMARK  Name = ../refined-set-2016/2pqc/2pqc_pocket.pdb
REMARK  243 active torsions:
REMARK  status: ('A' for Active; 'I' for Inactive)
REMARK    1  A    between atoms: _1  and  _3
REMARK    2  A    between atoms: _3  and  _4
REMARK    3  A    between atoms: _3  and  _6
REMARK    4  A    between atoms: _6  and  _7
REMARK    5  A    between atoms: _10  and  _12
REMARK    6  A    between atoms: _12  and  _13
REMARK    7  A    between atoms: _12  and  _15
REMARK    8  A    between atoms: _15  and  _16
REMARK    9  A    between atoms: _16  and  _17
REMARK   10  A    between atoms: _17  and  _18
REMARK   11  A    between atoms: _18  and  _19
REMARK   12  A    between atoms: _23  and  _25
REMARK   13  A    between atoms: _25  and  _26
REMARK   14  A    between atoms: _25  and  _28
REMARK   15  A    between atoms: _28  and  _29
REMARK   16  A    between atoms: _31  and  _33
REMARK   17  A    between atoms: _33  and  _34
REMARK   18  A    between atoms: _33  and  _36
REMARK   19  A    between atoms: _36  and  _37
REMARK   20  A    between atoms: _40  and  _42
REMARK   21  A    between atoms: _42  and  _43
REMARK   22  A    between atoms: _42  and  _45
REMARK   23  A    between atoms: _45  and  _46
REMARK   24  A    between atoms: _48  and  _50
REMARK   25  A    between atoms: _50  and  _51
REMARK   26  A    between atoms: _50  and  _53
REMARK   27  A    between atoms: _53  and  _54
REMARK   28  A    between atoms: _59  and  _61
REMARK   29  A    between atoms: _61  and  _62
REMARK   30  A    between atoms: _61  and  _64
REMARK   31  A    between atoms: _64  and  _65
REMARK   32  A    between atoms: _65  and  _66
REMARK   33  A    between atoms: _66  and  _67
REMARK   34  A    between atoms: _76  and  _78
REMARK   35  A    between atoms: _78  and  _79
REMARK   36  A    between atoms: _78  and  _81
REMARK   37  A    between atoms: _81  and  _82
REMARK   38  A    between atoms: _85  and  _87
REMARK   39  A    between atoms: _87  and  _88
REMARK   40  A    between atoms: _87  and  _90
REMARK   41  A    between atoms: _90  and  _91
REMARK   42  A    between atoms: _96  and  _98
REMARK   43  A    between atoms: _98  and  _99
REMARK   44  A    between atoms: _102  and  _104
REMARK   45  A    between atoms: _104  and  _105
REMARK   46  A    between atoms: _108  and  _110
REMARK   47  A    between atoms: _110  and  _111
REMARK   48  A    between atoms: _110  and  _113
REMARK   49  A    between atoms: _113  and  _114
REMARK   50  A    between atoms: _117  and  _119
REMARK   51  A    between atoms: _119  and  _120
REMARK   52  A    between atoms: _122  and  _124
REMARK   53  A    between atoms: _124  and  _125
REMARK   54  A    between atoms: _124  and  _127
REMARK   55  A    between atoms: _129  and  _131
REMARK   56  A    between atoms: _131  and  _132
REMARK   57  A    between atoms: _131  and  _134
REMARK   58  A    between atoms: _134  and  _135
REMARK   59  A    between atoms: _135  and  _136
REMARK   60  A    between atoms: _136  and  _137
REMARK   61  A    between atoms: _146  and  _148
REMARK   62  A    between atoms: _148  and  _149
REMARK   63  A    between atoms: _148  and  _151
REMARK   64  A    between atoms: _151  and  _152
REMARK   65  A    between atoms: _155  and  _157
REMARK   66  A    between atoms: _157  and  _158
REMARK   67  A    between atoms: _157  and  _160
REMARK   68  A    between atoms: _160  and  _161
REMARK   69  A    between atoms: _163  and  _165
REMARK   70  A    between atoms: _165  and  _166
REMARK   71  A    between atoms: _165  and  _168
REMARK   72  A    between atoms: _168  and  _169
REMARK   73  A    between atoms: _172  and  _174
REMARK   74  A    between atoms: _174  and  _175
REMARK   75  A    between atoms: _174  and  _177
REMARK   76  A    between atoms: _177  and  _178
REMARK   77  A    between atoms: _178  and  _179
REMARK   78  A    between atoms: _179  and  _180
REMARK   79  A    between atoms: _190  and  _191
REMARK   80  A    between atoms: _196  and  _198
REMARK   81  A    between atoms: _198  and  _199
REMARK   82  A    between atoms: _198  and  _201
REMARK   83  A    between atoms: _201  and  _202
REMARK   84  A    between atoms: _202  and  _203
REMARK   85  A    between atoms: _203  and  _204
REMARK   86  A    between atoms: _213  and  _215
REMARK   87  A    between atoms: _215  and  _216
REMARK   88  A    between atoms: _215  and  _218
REMARK   89  A    between atoms: _221  and  _223
REMARK   90  A    between atoms: _223  and  _224
REMARK   91  A    between atoms: _223  and  _226
REMARK   92  A    between atoms: _229  and  _231
REMARK   93  A    between atoms: _231  and  _232
REMARK   94  A    between atoms: _231  and  _234
REMARK   95  A    between atoms: _234  and  _235
REMARK   96  A    between atoms: _235  and  _236
REMARK   97  A    between atoms: _238  and  _240
REMARK   98  A    between atoms: _240  and  _241
REMARK   99  A    between atoms: _244  and  _246
REMARK  100  A    between atoms: _246  and  _247
REMARK  101  A    between atoms: _246  and  _249
REMARK  102  A    between atoms: _249  and  _250
REMARK  103  A    between atoms: _252  and  _254
REMARK  104  A    between atoms: _254  and  _255
REMARK  105  A    between atoms: _258  and  _260
REMARK  106  A    between atoms: _260  and  _261
REMARK  107  A    between atoms: _260  and  _263
REMARK  108  A    between atoms: _263  and  _264
REMARK  109  A    between atoms: _264  and  _265
REMARK  110  A    between atoms: _270  and  _272
REMARK  111  A    between atoms: _272  and  _273
REMARK  112  A    between atoms: _272  and  _275
REMARK  113  A    between atoms: _278  and  _280
REMARK  114  A    between atoms: _280  and  _281
REMARK  115  A    between atoms: _280  and  _283
REMARK  116  A    between atoms: _283  and  _284
REMARK  117  A    between atoms: _284  and  _285
REMARK  118  A    between atoms: _285  and  _286
REMARK  119  A    between atoms: _286  and  _287
REMARK  120  A    between atoms: _291  and  _293
REMARK  121  A    between atoms: _293  and  _294
REMARK  122  A    between atoms: _293  and  _296
REMARK  123  A    between atoms: _296  and  _297
REMARK  124  A    between atoms: _299  and  _301
REMARK  125  A    between atoms: _301  and  _302
REMARK  126  A    between atoms: _305  and  _307
REMARK  127  A    between atoms: _307  and  _308
REMARK  128  A    between atoms: _307  and  _310
REMARK  129  A    between atoms: _310  and  _311
REMARK  130  A    between atoms: _314  and  _316
REMARK  131  A    between atoms: _316  and  _317
REMARK  132  A    between atoms: _316  and  _319
REMARK  133  A    between atoms: _319  and  _320
REMARK  134  A    between atoms: _320  and  _321
REMARK  135  A    between atoms: _321  and  _322
REMARK  136  A    between atoms: _331  and  _333
REMARK  137  A    between atoms: _333  and  _334
REMARK  138  A    between atoms: _333  and  _336
REMARK  139  A    between atoms: _336  and  _337
REMARK  140  A    between atoms: _340  and  _342
REMARK  141  A    between atoms: _342  and  _343
REMARK  142  A    between atoms: _342  and  _345
REMARK  143  A    between atoms: _345  and  _346
REMARK  144  A    between atoms: _351  and  _353
REMARK  145  A    between atoms: _353  and  _354
REMARK  146  A    between atoms: _353  and  _356
REMARK  147  A    between atoms: _356  and  _357
REMARK  148  A    between atoms: _360  and  _362
REMARK  149  A    between atoms: _362  and  _363
REMARK  150  A    between atoms: _362  and  _365
REMARK  151  A    between atoms: _365  and  _366
REMARK  152  A    between atoms: _369  and  _371
REMARK  153  A    between atoms: _371  and  _372
REMARK  154  A    between atoms: _371  and  _374
REMARK  155  A    between atoms: _374  and  _375
REMARK  156  A    between atoms: _377  and  _379
REMARK  157  A    between atoms: _379  and  _380
REMARK  158  A    between atoms: _379  and  _382
REMARK  159  A    between atoms: _382  and  _383
REMARK  160  A    between atoms: _383  and  _384
REMARK  161  A    between atoms: _384  and  _385
REMARK  162  A    between atoms: _394  and  _396
REMARK  163  A    between atoms: _396  and  _397
REMARK  164  A    between atoms: _401  and  _402
REMARK  165  A    between atoms: _407  and  _409
REMARK  166  A    between atoms: _409  and  _410
REMARK  167  A    between atoms: _409  and  _412
REMARK  168  A    between atoms: _412  and  _413
REMARK  169  A    between atoms: _413  and  _414
REMARK  170  A    between atoms: _416  and  _418
REMARK  171  A    between atoms: _418  and  _419
REMARK  172  A    between atoms: _418  and  _421
REMARK  173  A    between atoms: _421  and  _422
REMARK  174  A    between atoms: _425  and  _427
REMARK  175  A    between atoms: _427  and  _428
REMARK  176  A    between atoms: _427  and  _430
REMARK  177  A    between atoms: _430  and  _431
REMARK  178  A    between atoms: _434  and  _436
REMARK  179  A    between atoms: _436  and  _437
REMARK  180  A    between atoms: _436  and  _439
REMARK  181  A    between atoms: _439  and  _440
REMARK  182  A    between atoms: _440  and  _441
REMARK  183  A    between atoms: _445  and  _446
REMARK  184  A    between atoms: _451  and  _453
REMARK  185  A    between atoms: _453  and  _454
REMARK  186  A    between atoms: _453  and  _456
REMARK  187  A    between atoms: _456  and  _457
REMARK  188  A    between atoms: _457  and  _458
REMARK  189  A    between atoms: _461  and  _463
REMARK  190  A    between atoms: _463  and  _464
REMARK  191  A    between atoms: _463  and  _466
REMARK  192  A    between atoms: _466  and  _467
REMARK  193  A    between atoms: _470  and  _472
REMARK  194  A    between atoms: _472  and  _473
REMARK  195  A    between atoms: _472  and  _475
REMARK  196  A    between atoms: _478  and  _480
REMARK  197  A    between atoms: _480  and  _481
REMARK  198  A    between atoms: _480  and  _483
REMARK  199  A    between atoms: _483  and  _484
REMARK  200  A    between atoms: _484  and  _485
REMARK  201  A    between atoms: _485  and  _486
REMARK  202  A    between atoms: _486  and  _487
REMARK  203  A    between atoms: _491  and  _493
REMARK  204  A    between atoms: _493  and  _494
REMARK  205  A    between atoms: _493  and  _496
REMARK  206  A    between atoms: _496  and  _497
REMARK  207  A    between atoms: _497  and  _498
REMARK  208  A    between atoms: _501  and  _503
REMARK  209  A    between atoms: _503  and  _504
REMARK  210  A    between atoms: _503  and  _506
REMARK  211  A    between atoms: _506  and  _507
REMARK  212  A    between atoms: _509  and  _511
REMARK  213  A    between atoms: _511  and  _512
REMARK  214  A    between atoms: _511  and  _514
REMARK  215  A    between atoms: _514  and  _515
REMARK  216  A    between atoms: _515  and  _516
REMARK  217  A    between atoms: _516  and  _517
REMARK  218  A    between atoms: _526  and  _528
REMARK  219  A    between atoms: _528  and  _529
REMARK  220  A    between atoms: _528  and  _531
REMARK  221  A    between atoms: _531  and  _532
REMARK  222  A    between atoms: _535  and  _537
REMARK  223  A    between atoms: _537  and  _538
REMARK  224  A    between atoms: _537  and  _540
REMARK  225  A    between atoms: _540  and  _541
REMARK  226  A    between atoms: _546  and  _548
REMARK  227  A    between atoms: _548  and  _549
REMARK  228  A    between atoms: _548  and  _551
REMARK  229  A    between atoms: _551  and  _552
REMARK  230  A    between atoms: _552  and  _553
REMARK  231  A    between atoms: _553  and  _554
REMARK  232  A    between atoms: _563  and  _565
REMARK  233  A    between atoms: _565  and  _566
REMARK  234  A    between atoms: _565  and  _568
REMARK  235  A    between atoms: _568  and  _569
REMARK  236  A    between atoms: _572  and  _574
REMARK  237  A    between atoms: _574  and  _575
REMARK  238  A    between atoms: _574  and  _577
REMARK  239  A    between atoms: _577  and  _578
REMARK  240  A    between atoms: _581  and  _583
REMARK  241  A    between atoms: _583  and  _584
REMARK  242  A    between atoms: _583  and  _586
REMARK  243  A    between atoms: _586  and  _587
REMARK                            x       y       z     vdW  Elec       q    Type
REMARK                         _______ _______ _______ _____ _____    ______ ____
ROOT
ATOM      1  O   HOH     1    -134.670  33.832 132.345  0.00  0.00    +0.000 OA
ENDROOT
TORSDOF 0
REMARK  Name = ../refined-set-2016/2pqc/2pqc_pocket.pdb
REMARK  243 active torsions:
REMARK  status: ('A' for Active; 'I' for Inactive)
REMARK    1  A    between atoms: _1  and  _3
REMARK    2  A    between atoms: _3  and  _4
REMARK    3  A    between atoms: _3  and  _6
REMARK    4  A    between atoms: _6  and  _7
REMARK    5  A    between atoms: _10  and  _12
REMARK    6  A    between atoms: _12  and  _13
REMARK    7  A    between atoms: _12  and  _15
REMARK    8  A    between atoms: _15  and  _16
REMARK    9  A    between atoms: _16  and  _17
REMARK   10  A    between atoms: _17  and  _18
REMARK   11  A    between atoms: _18  and  _19
REMARK   12  A    between atoms: _23  and  _25
REMARK   13  A    between atoms: _25  and  _26
REMARK   14  A    between atoms: _25  and  _28
REMARK   15  A    between atoms: _28  and  _29
REMARK   16  A    between atoms: _31  and  _33
REMARK   17  A    between atoms: _33  and  _34
REMARK   18  A    between atoms: _33  and  _36
REMARK   19  A    between atoms: _36  and  _37
REMARK   20  A    between atoms: _40  and  _42
REMARK   21  A    between atoms: _42  and  _43
REMARK   22  A    between atoms: _42  and  _45
REMARK   23  A    between atoms: _45  and  _46
REMARK   24  A    between atoms: _48  and  _50
REMARK   25  A    between atoms: _50  and  _51
REMARK   26  A    between atoms: _50  and  _53
REMARK   27  A    between atoms: _53  and  _54
REMARK   28  A    between atoms: _59  and  _61
REMARK   29  A    between atoms: _61  and  _62
REMARK   30  A    between atoms: _61  and  _64
REMARK   31  A    between atoms: _64  and  _65
REMARK   32  A    between atoms: _65  and  _66
REMARK   33  A    between atoms: _66  and  _67
REMARK   34  A    between atoms: _76  and  _78
REMARK   35  A    between atoms: _78  and  _79
REMARK   36  A    between atoms: _78  and  _81
REMARK   37  A    between atoms: _81  and  _82
REMARK   38  A    between atoms: _85  and  _87
REMARK   39  A    between atoms: _87  and  _88
REMARK   40  A    between atoms: _87  and  _90
REMARK   41  A    between atoms: _90  and  _91
REMARK   42  A    between atoms: _96  and  _98
REMARK   43  A    between atoms: _98  and  _99
REMARK   44  A    between atoms: _102  and  _104
REMARK   45  A    between atoms: _104  and  _105
REMARK   46  A    between atoms: _108  and  _110
REMARK   47  A    between atoms: _110  and  _111
REMARK   48  A    between atoms: _110  and  _113
REMARK   49  A    between atoms: _113  and  _114
REMARK   50  A    between atoms: _117  and  _119
REMARK   51  A    between atoms: _119  and  _120
REMARK   52  A    between atoms: _122  and  _124
REMARK   53  A    between atoms: _124  and  _125
REMARK   54  A    between atoms: _124  and  _127
REMARK   55  A    between atoms: _129  and  _131
REMARK   56  A    between atoms: _131  and  _132
REMARK   57  A    between atoms: _131  and  _134
REMARK   58  A    between atoms: _134  and  _135
REMARK   59  A    between atoms: _135  and  _136
REMARK   60  A    between atoms: _136  and  _137
REMARK   61  A    between atoms: _146  and  _148
REMARK   62  A    between atoms: _148  and  _149
REMARK   63  A    between atoms: _148  and  _151
REMARK   64  A    between atoms: _151  and  _152
REMARK   65  A    between atoms: _155  and  _157
REMARK   66  A    between atoms: _157  and  _158
REMARK   67  A    between atoms: _157  and  _160
REMARK   68  A    between atoms: _160  and  _161
REMARK   69  A    between atoms: _163  and  _165
REMARK   70  A    between atoms: _165  and  _166
REMARK   71  A    between atoms: _165  and  _168
REMARK   72  A    between atoms: _168  and  _169
REMARK   73  A    between atoms: _172  and  _174
REMARK   74  A    between atoms: _174  and  _175
REMARK   75  A    between atoms: _174  and  _177
REMARK   76  A    between atoms: _177  and  _178
REMARK   77  A    between atoms: _178  and  _179
REMARK   78  A    between atoms: _179  and  _180
REMARK   79  A    between atoms: _190  and  _191
REMARK   80  A    between atoms: _196  and  _198
REMARK   81  A    between atoms: _198  and  _199
REMARK   82  A    between atoms: _198  and  _201
REMARK   83  A    between atoms: _201  and  _202
REMARK   84  A    between atoms: _202  and  _203
REMARK   85  A    between atoms: _203  and  _204
REMARK   86  A    between atoms: _213  and  _215
REMARK   87  A    between atoms: _215  and  _216
REMARK   88  A    between atoms: _215  and  _218
REMARK   89  A    between atoms: _221  and  _223
REMARK   90  A    between atoms: _223  and  _224
REMARK   91  A    between atoms: _223  and  _226
REMARK   92  A    between atoms: _229  and  _231
REMARK   93  A    between atoms: _231  and  _232
REMARK   94  A    between atoms: _231  and  _234
REMARK   95  A    between atoms: _234  and  _235
REMARK   96  A    between atoms: _235  and  _236
REMARK   97  A    between atoms: _238  and  _240
REMARK   98  A    between atoms: _240  and  _241
REMARK   99  A    between atoms: _244  and  _246
REMARK  100  A    between atoms: _246  and  _247
REMARK  101  A    between atoms: _246  and  _249
REMARK  102  A    between atoms: _249  and  _250
REMARK  103  A    between atoms: _252  and  _254
REMARK  104  A    between atoms: _254  and  _255
REMARK  105  A    between atoms: _258  and  _260
REMARK  106  A    between atoms: _260  and  _261
REMARK  107  A    between atoms: _260  and  _263
REMARK  108  A    between atoms: _263  and  _264
REMARK  109  A    between atoms: _264  and  _265
REMARK  110  A    between atoms: _270  and  _272
REMARK  111  A    between atoms: _272  and  _273
REMARK  112  A    between atoms: _272  and  _275
REMARK  113  A    between atoms: _278  and  _280
REMARK  114  A    between atoms: _280  and  _281
REMARK  115  A    between atoms: _280  and  _283
REMARK  116  A    between atoms: _283  and  _284
REMARK  117  A    between atoms: _284  and  _285
REMARK  118  A    between atoms: _285  and  _286
REMARK  119  A    between atoms: _286  and  _287
REMARK  120  A    between atoms: _291  and  _293
REMARK  121  A    between atoms: _293  and  _294
REMARK  122  A    between atoms: _293  and  _296
REMARK  123  A    between atoms: _296  and  _297
REMARK  124  A    between atoms: _299  and  _301
REMARK  125  A    between atoms: _301  and  _302
REMARK  126  A    between atoms: _305  and  _307
REMARK  127  A    between atoms: _307  and  _308
REMARK  128  A    between atoms: _307  and  _310
REMARK  129  A    between atoms: _310  and  _311
REMARK  130  A    between atoms: _314  and  _316
REMARK  131  A    between atoms: _316  and  _317
REMARK  132  A    between atoms: _316  and  _319
REMARK  133  A    between atoms: _319  and  _320
REMARK  134  A    between atoms: _320  and  _321
REMARK  135  A    between atoms: _321  and  _322
REMARK  136  A    between atoms: _331  and  _333
REMARK  137  A    between atoms: _333  and  _334
REMARK  138  A    between atoms: _333  and  _336
REMARK  139  A    between atoms: _336  and  _337
REMARK  140  A    between atoms: _340  and  _342
REMARK  141  A    between atoms: _342  and  _343
REMARK  142  A    between atoms: _342  and  _345
REMARK  143  A    between atoms: _345  and  _346
REMARK  144  A    between atoms: _351  and  _353
REMARK  145  A    between atoms: _353  and  _354
REMARK  146  A    between atoms: _353  and  _356
REMARK  147  A    between atoms: _356  and  _357
REMARK  148  A    between atoms: _360  and  _362
REMARK  149  A    between atoms: _362  and  _363
REMARK  150  A    between atoms: _362  and  _365
REMARK  151  A    between atoms: _365  and  _366
REMARK  152  A    between atoms: _369  and  _371
REMARK  153  A    between atoms: _371  and  _372
REMARK  154  A    between atoms: _371  and  _374
REMARK  155  A    between atoms: _374  and  _375
REMARK  156  A    between atoms: _377  and  _379
REMARK  157  A    between atoms: _379  and  _380
REMARK  158  A    between atoms: _379  and  _382
REMARK  159  A    between atoms: _382  and  _383
REMARK  160  A    between atoms: _383  and  _384
REMARK  161  A    between atoms: _384  and  _385
REMARK  162  A    between atoms: _394  and  _396
REMARK  163  A    between atoms: _396  and  _397
REMARK  164  A    between atoms: _401  and  _402
REMARK  165  A    between atoms: _407  and  _409
REMARK  166  A    between atoms: _409  and  _410
REMARK  167  A    between atoms: _409  and  _412
REMARK  168  A    between atoms: _412  and  _413
REMARK  169  A    between atoms: _413  and  _414
REMARK  170  A    between atoms: _416  and  _418
REMARK  171  A    between atoms: _418  and  _419
REMARK  172  A    between atoms: _418  and  _421
REMARK  173  A    between atoms: _421  and  _422
REMARK  174  A    between atoms: _425  and  _427
REMARK  175  A    between atoms: _427  and  _428
REMARK  176  A    between atoms: _427  and  _430
REMARK  177  A    between atoms: _430  and  _431
REMARK  178  A    between atoms: _434  and  _436
REMARK  179  A    between atoms: _436  and  _437
REMARK  180  A    between atoms: _436  and  _439
REMARK  181  A    between atoms: _439  and  _440
REMARK  182  A    between atoms: _440  and  _441
REMARK  183  A    between atoms: _445  and  _446
REMARK  184  A    between atoms: _451  and  _453
REMARK  185  A    between atoms: _453  and  _454
REMARK  186  A    between atoms: _453  and  _456
REMARK  187  A    between atoms: _456  and  _457
REMARK  188  A    between atoms: _457  and  _458
REMARK  189  A    between atoms: _461  and  _463
REMARK  190  A    between atoms: _463  and  _464
REMARK  191  A    between atoms: _463  and  _466
REMARK  192  A    between atoms: _466  and  _467
REMARK  193  A    between atoms: _470  and  _472
REMARK  194  A    between atoms: _472  and  _473
REMARK  195  A    between atoms: _472  and  _475
REMARK  196  A    between atoms: _478  and  _480
REMARK  197  A    between atoms: _480  and  _481
REMARK  198  A    between atoms: _480  and  _483
REMARK  199  A    between atoms: _483  and  _484
REMARK  200  A    between atoms: _484  and  _485
REMARK  201  A    between atoms: _485  and  _486
REMARK  202  A    between atoms: _486  and  _487
REMARK  203  A    between atoms: _491  and  _493
REMARK  204  A    between atoms: _493  and  _494
REMARK  205  A    between atoms: _493  and  _496
REMARK  206  A    between atoms: _496  and  _497
REMARK  207  A    between atoms: _497  and  _498
REMARK  208  A    between atoms: _501  and  _503
REMARK  209  A    between atoms: _503  and  _504
REMARK  210  A    between atoms: _503  and  _506
REMARK  211  A    between atoms: _506  and  _507
REMARK  212  A    between atoms: _509  and  _511
REMARK  213  A    between atoms: _511  and  _512
REMARK  214  A    between atoms: _511  and  _514
REMARK  215  A    between atoms: _514  and  _515
REMARK  216  A    between atoms: _515  and  _516
REMARK  217  A    between atoms: _516  and  _517
REMARK  218  A    between atoms: _526  and  _528
REMARK  219  A    between atoms: _528  and  _529
REMARK  220  A    between atoms: _528  and  _531
REMARK  221  A    between atoms: _531  and  _532
REMARK  222  A    between atoms: _535  and  _537
REMARK  223  A    between atoms: _537  and  _538
REMARK  224  A    between atoms: _537  and  _540
REMARK  225  A    between atoms: _540  and  _541
REMARK  226  A    between atoms: _546  and  _548
REMARK  227  A    between atoms: _548  and  _549
REMARK  228  A    between atoms: _548  and  _551
REMARK  229  A    between atoms: _551  and  _552
REMARK  230  A    between atoms: _552  and  _553
REMARK  231  A    between atoms: _553  and  _554
REMARK  232  A    between atoms: _563  and  _565
REMARK  233  A    between atoms: _565  and  _566
REMARK  234  A    between atoms: _565  and  _568
REMARK  235  A    between atoms: _568  and  _569
REMARK  236  A    between atoms: _572  and  _574
REMARK  237  A    between atoms: _574  and  _575
REMARK  238  A    between atoms: _574  and  _577
REMARK  239  A    between atoms: _577  and  _578
REMARK  240  A    between atoms: _581  and  _583
REMARK  241  A    between atoms: _583  and  _584
REMARK  242  A    between atoms: _583  and  _586
REMARK  243  A    between atoms: _586  and  _587
REMARK                            x       y       z     vdW  Elec       q    Type
REMARK                         _______ _______ _______ _____ _____    ______ ____
ROOT
ATOM      1  O   HOH     1    -129.069  28.941 120.183  0.00  0.00    +0.000 OA
ENDROOT
TORSDOF 0
REMARK  Name = ../refined-set-2016/2pqc/2pqc_pocket.pdb
REMARK  243 active torsions:
REMARK  status: ('A' for Active; 'I' for Inactive)
REMARK    1  A    between atoms: _1  and  _3
REMARK    2  A    between atoms: _3  and  _4
REMARK    3  A    between atoms: _3  and  _6
REMARK    4  A    between atoms: _6  and  _7
REMARK    5  A    between atoms: _10  and  _12
REMARK    6  A    between atoms: _12  and  _13
REMARK    7  A    between atoms: _12  and  _15
REMARK    8  A    between atoms: _15  and  _16
REMARK    9  A    between atoms: _16  and  _17
REMARK   10  A    between atoms: _17  and  _18
REMARK   11  A    between atoms: _18  and  _19
REMARK   12  A    between atoms: _23  and  _25
REMARK   13  A    between atoms: _25  and  _26
REMARK   14  A    between atoms: _25  and  _28
REMARK   15  A    between atoms: _28  and  _29
REMARK   16  A    between atoms: _31  and  _33
REMARK   17  A    between atoms: _33  and  _34
REMARK   18  A    between atoms: _33  and  _36
REMARK   19  A    between atoms: _36  and  _37
REMARK   20  A    between atoms: _40  and  _42
REMARK   21  A    between atoms: _42  and  _43
REMARK   22  A    between atoms: _42  and  _45
REMARK   23  A    between atoms: _45  and  _46
REMARK   24  A    between atoms: _48  and  _50
REMARK   25  A    between atoms: _50  and  _51
REMARK   26  A    between atoms: _50  and  _53
REMARK   27  A    between atoms: _53  and  _54
REMARK   28  A    between atoms: _59  and  _61
REMARK   29  A    between atoms: _61  and  _62
REMARK   30  A    between atoms: _61  and  _64
REMARK   31  A    between atoms: _64  and  _65
REMARK   32  A    between atoms: _65  and  _66
REMARK   33  A    between atoms: _66  and  _67
REMARK   34  A    between atoms: _76  and  _78
REMARK   35  A    between atoms: _78  and  _79
REMARK   36  A    between atoms: _78  and  _81
REMARK   37  A    between atoms: _81  and  _82
REMARK   38  A    between atoms: _85  and  _87
REMARK   39  A    between atoms: _87  and  _88
REMARK   40  A    between atoms: _87  and  _90
REMARK   41  A    between atoms: _90  and  _91
REMARK   42  A    between atoms: _96  and  _98
REMARK   43  A    between atoms: _98  and  _99
REMARK   44  A    between atoms: _102  and  _104
REMARK   45  A    between atoms: _104  and  _105
REMARK   46  A    between atoms: _108  and  _110
REMARK   47  A    between atoms: _110  and  _111
REMARK   48  A    between atoms: _110  and  _113
REMARK   49  A    between atoms: _113  and  _114
REMARK   50  A    between atoms: _117  and  _119
REMARK   51  A    between atoms: _119  and  _120
REMARK   52  A    between atoms: _122  and  _124
REMARK   53  A    between atoms: _124  and  _125
REMARK   54  A    between atoms: _124  and  _127
REMARK   55  A    between atoms: _129  and  _131
REMARK   56  A    between atoms: _131  and  _132
REMARK   57  A    between atoms: _131  and  _134
REMARK   58  A    between atoms: _134  and  _135
REMARK   59  A    between atoms: _135  and  _136
REMARK   60  A    between atoms: _136  and  _137
REMARK   61  A    between atoms: _146  and  _148
REMARK   62  A    between atoms: _148  and  _149
REMARK   63  A    between atoms: _148  and  _151
REMARK   64  A    between atoms: _151  and  _152
REMARK   65  A    between atoms: _155  and  _157
REMARK   66  A    between atoms: _157  and  _158
REMARK   67  A    between atoms: _157  and  _160
REMARK   68  A    between atoms: _160  and  _161
REMARK   69  A    between atoms: _163  and  _165
REMARK   70  A    between atoms: _165  and  _166
REMARK   71  A    between atoms: _165  and  _168
REMARK   72  A    between atoms: _168  and  _169
REMARK   73  A    between atoms: _172  and  _174
REMARK   74  A    between atoms: _174  and  _175
REMARK   75  A    between atoms: _174  and  _177
REMARK   76  A    between atoms: _177  and  _178
REMARK   77  A    between atoms: _178  and  _179
REMARK   78  A    between atoms: _179  and  _180
REMARK   79  A    between atoms: _190  and  _191
REMARK   80  A    between atoms: _196  and  _198
REMARK   81  A    between atoms: _198  and  _199
REMARK   82  A    between atoms: _198  and  _201
REMARK   83  A    between atoms: _201  and  _202
REMARK   84  A    between atoms: _202  and  _203
REMARK   85  A    between atoms: _203  and  _204
REMARK   86  A    between atoms: _213  and  _215
REMARK   87  A    between atoms: _215  and  _216
REMARK   88  A    between atoms: _215  and  _218
REMARK   89  A    between atoms: _221  and  _223
REMARK   90  A    between atoms: _223  and  _224
REMARK   91  A    between atoms: _223  and  _226
REMARK   92  A    between atoms: _229  and  _231
REMARK   93  A    between atoms: _231  and  _232
REMARK   94  A    between atoms: _231  and  _234
REMARK   95  A    between atoms: _234  and  _235
REMARK   96  A    between atoms: _235  and  _236
REMARK   97  A    between atoms: _238  and  _240
REMARK   98  A    between atoms: _240  and  _241
REMARK   99  A    between atoms: _244  and  _246
REMARK  100  A    between atoms: _246  and  _247
REMARK  101  A    between atoms: _246  and  _249
REMARK  102  A    between atoms: _249  and  _250
REMARK  103  A    between atoms: _252  and  _254
REMARK  104  A    between atoms: _254  and  _255
REMARK  105  A    between atoms: _258  and  _260
REMARK  106  A    between atoms: _260  and  _261
REMARK  107  A    between atoms: _260  and  _263
REMARK  108  A    between atoms: _263  and  _264
REMARK  109  A    between atoms: _264  and  _265
REMARK  110  A    between atoms: _270  and  _272
REMARK  111  A    between atoms: _272  and  _273
REMARK  112  A    between atoms: _272  and  _275
REMARK  113  A    between atoms: _278  and  _280
REMARK  114  A    between atoms: _280  and  _281
REMARK  115  A    between atoms: _280  and  _283
REMARK  116  A    between atoms: _283  and  _284
REMARK  117  A    between atoms: _284  and  _285
REMARK  118  A    between atoms: _285  and  _286
REMARK  119  A    between atoms: _286  and  _287
REMARK  120  A    between atoms: _291  and  _293
REMARK  121  A    between atoms: _293  and  _294
REMARK  122  A    between atoms: _293  and  _296
REMARK  123  A    between atoms: _296  and  _297
REMARK  124  A    between atoms: _299  and  _301
REMARK  125  A    between atoms: _301  and  _302
REMARK  126  A    between atoms: _305  and  _307
REMARK  127  A    between atoms: _307  and  _308
REMARK  128  A    between atoms: _307  and  _310
REMARK  129  A    between atoms: _310  and  _311
REMARK  130  A    between atoms: _314  and  _316
REMARK  131  A    between atoms: _316  and  _317
REMARK  132  A    between atoms: _316  and  _319
REMARK  133  A    between atoms: _319  and  _320
REMARK  134  A    between atoms: _320  and  _321
REMARK  135  A    between atoms: _321  and  _322
REMARK  136  A    between atoms: _331  and  _333
REMARK  137  A    between atoms: _333  and  _334
REMARK  138  A    between atoms: _333  and  _336
REMARK  139  A    between atoms: _336  and  _337
REMARK  140  A    between atoms: _340  and  _342
REMARK  141  A    between atoms: _342  and  _343
REMARK  142  A    between atoms: _342  and  _345
REMARK  143  A    between atoms: _345  and  _346
REMARK  144  A    between atoms: _351  and  _353
REMARK  145  A    between atoms: _353  and  _354
REMARK  146  A    between atoms: _353  and  _356
REMARK  147  A    between atoms: _356  and  _357
REMARK  148  A    between atoms: _360  and  _362
REMARK  149  A    between atoms: _362  and  _363
REMARK  150  A    between atoms: _362  and  _365
REMARK  151  A    between atoms: _365  and  _366
REMARK  152  A    between atoms: _369  and  _371
REMARK  153  A    between atoms: _371  and  _372
REMARK  154  A    between atoms: _371  and  _374
REMARK  155  A    between atoms: _374  and  _375
REMARK  156  A    between atoms: _377  and  _379
REMARK  157  A    between atoms: _379  and  _380
REMARK  158  A    between atoms: _379  and  _382
REMARK  159  A    between atoms: _382  and  _383
REMARK  160  A    between atoms: _383  and  _384
REMARK  161  A    between atoms: _384  and  _385
REMARK  162  A    between atoms: _394  and  _396
REMARK  163  A    between atoms: _396  and  _397
REMARK  164  A    between atoms: _401  and  _402
REMARK  165  A    between atoms: _407  and  _409
REMARK  166  A    between atoms: _409  and  _410
REMARK  167  A    between atoms: _409  and  _412
REMARK  168  A    between atoms: _412  and  _413
REMARK  169  A    between atoms: _413  and  _414
REMARK  170  A    between atoms: _416  and  _418
REMARK  171  A    between atoms: _418  and  _419
REMARK  172  A    between atoms: _418  and  _421
REMARK  173  A    between atoms: _421  and  _422
REMARK  174  A    between atoms: _425  and  _427
REMARK  175  A    between atoms: _427  and  _428
REMARK  176  A    between atoms: _427  and  _430
REMARK  177  A    between atoms: _430  and  _431
REMARK  178  A    between atoms: _434  and  _436
REMARK  179  A    between atoms: _436  and  _437
REMARK  180  A    between atoms: _436  and  _439
REMARK  181  A    between atoms: _439  and  _440
REMARK  182  A    between atoms: _440  and  _441
REMARK  183  A    between atoms: _445  and  _446
REMARK  184  A    between atoms: _451  and  _453
REMARK  185  A    between atoms: _453  and  _454
REMARK  186  A    between atoms: _453  and  _456
REMARK  187  A    between atoms: _456  and  _457
REMARK  188  A    between atoms: _457  and  _458
REMARK  189  A    between atoms: _461  and  _463
REMARK  190  A    between atoms: _463  and  _464
REMARK  191  A    between atoms: _463  and  _466
REMARK  192  A    between atoms: _466  and  _467
REMARK  193  A    between atoms: _470  and  _472
REMARK  194  A    between atoms: _472  and  _473
REMARK  195  A    between atoms: _472  and  _475
REMARK  196  A    between atoms: _478  and  _480
REMARK  197  A    between atoms: _480  and  _481
REMARK  198  A    between atoms: _480  and  _483
REMARK  199  A    between atoms: _483  and  _484
REMARK  200  A    between atoms: _484  and  _485
REMARK  201  A    between atoms: _485  and  _486
REMARK  202  A    between atoms: _486  and  _487
REMARK  203  A    between atoms: _491  and  _493
REMARK  204  A    between atoms: _493  and  _494
REMARK  205  A    between atoms: _493  and  _496
REMARK  206  A    between atoms: _496  and  _497
REMARK  207  A    between atoms: _497  and  _498
REMARK  208  A    between atoms: _501  and  _503
REMARK  209  A    between atoms: _503  and  _504
REMARK  210  A    between atoms: _503  and  _506
REMARK  211  A    between atoms: _506  and  _507
REMARK  212  A    between atoms: _509  and  _511
REMARK  213  A    between atoms: _511  and  _512
REMARK  214  A    between atoms: _511  and  _514
REMARK  215  A    between atoms: _514  and  _515
REMARK  216  A    between atoms: _515  and  _516
REMARK  217  A    between atoms: _516  and  _517
REMARK  218  A    between atoms: _526  and  _528
REMARK  219  A    between atoms: _528  and  _529
REMARK  220  A    between atoms: _528  and  _531
REMARK  221  A    between atoms: _531  and  _532
REMARK  222  A    between atoms: _535  and  _537
REMARK  223  A    between atoms: _537  and  _538
REMARK  224  A    between atoms: _537  and  _540
REMARK  225  A    between atoms: _540  and  _541
REMARK  226  A    between atoms: _546  and  _548
REMARK  227  A    between atoms: _548  and  _549
REMARK  228  A    between atoms: _548  and  _551
REMARK  229  A    between atoms: _551  and  _552
REMARK  230  A    between atoms: _552  and  _553
REMARK  231  A    between atoms: _553  and  _554
REMARK  232  A    between atoms: _563  and  _565
REMARK  233  A    between atoms: _565  and  _566
REMARK  234  A    between atoms: _565  and  _568
REMARK  235  A    between atoms: _568  and  _569
REMARK  236  A    between atoms: _572  and  _574
REMARK  237  A    between atoms: _574  and  _575
REMARK  238  A    between atoms: _574  and  _577
REMARK  239  A    between atoms: _577  and  _578
REMARK  240  A    between atoms: _581  and  _583
REMARK  241  A    between atoms: _583  and  _584
REMARK  242  A    between atoms: _583  and  _586
REMARK  243  A    between atoms: _586  and  _587
REMARK                            x       y       z     vdW  Elec       q    Type
REMARK                         _______ _______ _______ _____ _____    ______ ____
ROOT
ATOM      1  O   HOH     1    -129.854  26.569 121.084  0.00  0.00    +0.000 OA
ENDROOT
TORSDOF 0
REMARK  Name = ../refined-set-2016/2pqc/2pqc_pocket.pdb
REMARK  243 active torsions:
REMARK  status: ('A' for Active; 'I' for Inactive)
REMARK    1  A    between atoms: _1  and  _3
REMARK    2  A    between atoms: _3  and  _4
REMARK    3  A    between atoms: _3  and  _6
REMARK    4  A    between atoms: _6  and  _7
REMARK    5  A    between atoms: _10  and  _12
REMARK    6  A    between atoms: _12  and  _13
REMARK    7  A    between atoms: _12  and  _15
REMARK    8  A    between atoms: _15  and  _16
REMARK    9  A    between atoms: _16  and  _17
REMARK   10  A    between atoms: _17  and  _18
REMARK   11  A    between atoms: _18  and  _19
REMARK   12  A    between atoms: _23  and  _25
REMARK   13  A    between atoms: _25  and  _26
REMARK   14  A    between atoms: _25  and  _28
REMARK   15  A    between atoms: _28  and  _29
REMARK   16  A    between atoms: _31  and  _33
REMARK   17  A    between atoms: _33  and  _34
REMARK   18  A    between atoms: _33  and  _36
REMARK   19  A    between atoms: _36  and  _37
REMARK   20  A    between atoms: _40  and  _42
REMARK   21  A    between atoms: _42  and  _43
REMARK   22  A    between atoms: _42  and  _45
REMARK   23  A    between atoms: _45  and  _46
REMARK   24  A    between atoms: _48  and  _50
REMARK   25  A    between atoms: _50  and  _51
REMARK   26  A    between atoms: _50  and  _53
REMARK   27  A    between atoms: _53  and  _54
REMARK   28  A    between atoms: _59  and  _61
REMARK   29  A    between atoms: _61  and  _62
REMARK   30  A    between atoms: _61  and  _64
REMARK   31  A    between atoms: _64  and  _65
REMARK   32  A    between atoms: _65  and  _66
REMARK   33  A    between atoms: _66  and  _67
REMARK   34  A    between atoms: _76  and  _78
REMARK   35  A    between atoms: _78  and  _79
REMARK   36  A    between atoms: _78  and  _81
REMARK   37  A    between atoms: _81  and  _82
REMARK   38  A    between atoms: _85  and  _87
REMARK   39  A    between atoms: _87  and  _88
REMARK   40  A    between atoms: _87  and  _90
REMARK   41  A    between atoms: _90  and  _91
REMARK   42  A    between atoms: _96  and  _98
REMARK   43  A    between atoms: _98  and  _99
REMARK   44  A    between atoms: _102  and  _104
REMARK   45  A    between atoms: _104  and  _105
REMARK   46  A    between atoms: _108  and  _110
REMARK   47  A    between atoms: _110  and  _111
REMARK   48  A    between atoms: _110  and  _113
REMARK   49  A    between atoms: _113  and  _114
REMARK   50  A    between atoms: _117  and  _119
REMARK   51  A    between atoms: _119  and  _120
REMARK   52  A    between atoms: _122  and  _124
REMARK   53  A    between atoms: _124  and  _125
REMARK   54  A    between atoms: _124  and  _127
REMARK   55  A    between atoms: _129  and  _131
REMARK   56  A    between atoms: _131  and  _132
REMARK   57  A    between atoms: _131  and  _134
REMARK   58  A    between atoms: _134  and  _135
REMARK   59  A    between atoms: _135  and  _136
REMARK   60  A    between atoms: _136  and  _137
REMARK   61  A    between atoms: _146  and  _148
REMARK   62  A    between atoms: _148  and  _149
REMARK   63  A    between atoms: _148  and  _151
REMARK   64  A    between atoms: _151  and  _152
REMARK   65  A    between atoms: _155  and  _157
REMARK   66  A    between atoms: _157  and  _158
REMARK   67  A    between atoms: _157  and  _160
REMARK   68  A    between atoms: _160  and  _161
REMARK   69  A    between atoms: _163  and  _165
REMARK   70  A    between atoms: _165  and  _166
REMARK   71  A    between atoms: _165  and  _168
REMARK   72  A    between atoms: _168  and  _169
REMARK   73  A    between atoms: _172  and  _174
REMARK   74  A    between atoms: _174  and  _175
REMARK   75  A    between atoms: _174  and  _177
REMARK   76  A    between atoms: _177  and  _178
REMARK   77  A    between atoms: _178  and  _179
REMARK   78  A    between atoms: _179  and  _180
REMARK   79  A    between atoms: _190  and  _191
REMARK   80  A    between atoms: _196  and  _198
REMARK   81  A    between atoms: _198  and  _199
REMARK   82  A    between atoms: _198  and  _201
REMARK   83  A    between atoms: _201  and  _202
REMARK   84  A    between atoms: _202  and  _203
REMARK   85  A    between atoms: _203  and  _204
REMARK   86  A    between atoms: _213  and  _215
REMARK   87  A    between atoms: _215  and  _216
REMARK   88  A    between atoms: _215  and  _218
REMARK   89  A    between atoms: _221  and  _223
REMARK   90  A    between atoms: _223  and  _224
REMARK   91  A    between atoms: _223  and  _226
REMARK   92  A    between atoms: _229  and  _231
REMARK   93  A    between atoms: _231  and  _232
REMARK   94  A    between atoms: _231  and  _234
REMARK   95  A    between atoms: _234  and  _235
REMARK   96  A    between atoms: _235  and  _236
REMARK   97  A    between atoms: _238  and  _240
REMARK   98  A    between atoms: _240  and  _241
REMARK   99  A    between atoms: _244  and  _246
REMARK  100  A    between atoms: _246  and  _247
REMARK  101  A    between atoms: _246  and  _249
REMARK  102  A    between atoms: _249  and  _250
REMARK  103  A    between atoms: _252  and  _254
REMARK  104  A    between atoms: _254  and  _255
REMARK  105  A    between atoms: _258  and  _260
REMARK  106  A    between atoms: _260  and  _261
REMARK  107  A    between atoms: _260  and  _263
REMARK  108  A    between atoms: _263  and  _264
REMARK  109  A    between atoms: _264  and  _265
REMARK  110  A    between atoms: _270  and  _272
REMARK  111  A    between atoms: _272  and  _273
REMARK  112  A    between atoms: _272  and  _275
REMARK  113  A    between atoms: _278  and  _280
REMARK  114  A    between atoms: _280  and  _281
REMARK  115  A    between atoms: _280  and  _283
REMARK  116  A    between atoms: _283  and  _284
REMARK  117  A    between atoms: _284  and  _285
REMARK  118  A    between atoms: _285  and  _286
REMARK  119  A    between atoms: _286  and  _287
REMARK  120  A    between atoms: _291  and  _293
REMARK  121  A    between atoms: _293  and  _294
REMARK  122  A    between atoms: _293  and  _296
REMARK  123  A    between atoms: _296  and  _297
REMARK  124  A    between atoms: _299  and  _301
REMARK  125  A    between atoms: _301  and  _302
REMARK  126  A    between atoms: _305  and  _307
REMARK  127  A    between atoms: _307  and  _308
REMARK  128  A    between atoms: _307  and  _310
REMARK  129  A    between atoms: _310  and  _311
REMARK  130  A    between atoms: _314  and  _316
REMARK  131  A    between atoms: _316  and  _317
REMARK  132  A    between atoms: _316  and  _319
REMARK  133  A    between atoms: _319  and  _320
REMARK  134  A    between atoms: _320  and  _321
REMARK  135  A    between atoms: _321  and  _322
REMARK  136  A    between atoms: _331  and  _333
REMARK  137  A    between atoms: _333  and  _334
REMARK  138  A    between atoms: _333  and  _336
REMARK  139  A    between atoms: _336  and  _337
REMARK  140  A    between atoms: _340  and  _342
REMARK  141  A    between atoms: _342  and  _343
REMARK  142  A    between atoms: _342  and  _345
REMARK  143  A    between atoms: _345  and  _346
REMARK  144  A    between atoms: _351  and  _353
REMARK  145  A    between atoms: _353  and  _354
REMARK  146  A    between atoms: _353  and  _356
REMARK  147  A    between atoms: _356  and  _357
REMARK  148  A    between atoms: _360  and  _362
REMARK  149  A    between atoms: _362  and  _363
REMARK  150  A    between atoms: _362  and  _365
REMARK  151  A    between atoms: _365  and  _366
REMARK  152  A    between atoms: _369  and  _371
REMARK  153  A    between atoms: _371  and  _372
REMARK  154  A    between atoms: _371  and  _374
REMARK  155  A    between atoms: _374  and  _375
REMARK  156  A    between atoms: _377  and  _379
REMARK  157  A    between atoms: _379  and  _380
REMARK  158  A    between atoms: _379  and  _382
REMARK  159  A    between atoms: _382  and  _383
REMARK  160  A    between atoms: _383  and  _384
REMARK  161  A    between atoms: _384  and  _385
REMARK  162  A    between atoms: _394  and  _396
REMARK  163  A    between atoms: _396  and  _397
REMARK  164  A    between atoms: _401  and  _402
REMARK  165  A    between atoms: _407  and  _409
REMARK  166  A    between atoms: _409  and  _410
REMARK  167  A    between atoms: _409  and  _412
REMARK  168  A    between atoms: _412  and  _413
REMARK  169  A    between atoms: _413  and  _414
REMARK  170  A    between atoms: _416  and  _418
REMARK  171  A    between atoms: _418  and  _419
REMARK  172  A    between atoms: _418  and  _421
REMARK  173  A    between atoms: _421  and  _422
REMARK  174  A    between atoms: _425  and  _427
REMARK  175  A    between atoms: _427  and  _428
REMARK  176  A    between atoms: _427  and  _430
REMARK  177  A    between atoms: _430  and  _431
REMARK  178  A    between atoms: _434  and  _436
REMARK  179  A    between atoms: _436  and  _437
REMARK  180  A    between atoms: _436  and  _439
REMARK  181  A    between atoms: _439  and  _440
REMARK  182  A    between atoms: _440  and  _441
REMARK  183  A    between atoms: _445  and  _446
REMARK  184  A    between atoms: _451  and  _453
REMARK  185  A    between atoms: _453  and  _454
REMARK  186  A    between atoms: _453  and  _456
REMARK  187  A    between atoms: _456  and  _457
REMARK  188  A    between atoms: _457  and  _458
REMARK  189  A    between atoms: _461  and  _463
REMARK  190  A    between atoms: _463  and  _464
REMARK  191  A    between atoms: _463  and  _466
REMARK  192  A    between atoms: _466  and  _467
REMARK  193  A    between atoms: _470  and  _472
REMARK  194  A    between atoms: _472  and  _473
REMARK  195  A    between atoms: _472  and  _475
REMARK  196  A    between atoms: _478  and  _480
REMARK  197  A    between atoms: _480  and  _481
REMARK  198  A    between atoms: _480  and  _483
REMARK  199  A    between atoms: _483  and  _484
REMARK  200  A    between atoms: _484  and  _485
REMARK  201  A    between atoms: _485  and  _486
REMARK  202  A    between atoms: _486  and  _487
REMARK  203  A    between atoms: _491  and  _493
REMARK  204  A    between atoms: _493  and  _494
REMARK  205  A    between atoms: _493  and  _496
REMARK  206  A    between atoms: _496  and  _497
REMARK  207  A    between atoms: _497  and  _498
REMARK  208  A    between atoms: _501  and  _503
REMARK  209  A    between atoms: _503  and  _504
REMARK  210  A    between atoms: _503  and  _506
REMARK  211  A    between atoms: _506  and  _507
REMARK  212  A    between atoms: _509  and  _511
REMARK  213  A    between atoms: _511  and  _512
REMARK  214  A    between atoms: _511  and  _514
REMARK  215  A    between atoms: _514  and  _515
REMARK  216  A    between atoms: _515  and  _516
REMARK  217  A    between atoms: _516  and  _517
REMARK  218  A    between atoms: _526  and  _528
REMARK  219  A    between atoms: _528  and  _529
REMARK  220  A    between atoms: _528  and  _531
REMARK  221  A    between atoms: _531  and  _532
REMARK  222  A    between atoms: _535  and  _537
REMARK  223  A    between atoms: _537  and  _538
REMARK  224  A    between atoms: _537  and  _540
REMARK  225  A    between atoms: _540  and  _541
REMARK  226  A    between atoms: _546  and  _548
REMARK  227  A    between atoms: _548  and  _549
REMARK  228  A    between atoms: _548  and  _551
REMARK  229  A    between atoms: _551  and  _552
REMARK  230  A    between atoms: _552  and  _553
REMARK  231  A    between atoms: _553  and  _554
REMARK  232  A    between atoms: _563  and  _565
REMARK  233  A    between atoms: _565  and  _566
REMARK  234  A    between atoms: _565  and  _568
REMARK  235  A    between atoms: _568  and  _569
REMARK  236  A    between atoms: _572  and  _574
REMARK  237  A    between atoms: _574  and  _575
REMARK  238  A    between atoms: _574  and  _577
REMARK  239  A    between atoms: _577  and  _578
REMARK  240  A    between atoms: _581  and  _583
REMARK  241  A    between atoms: _583  and  _584
REMARK  242  A    between atoms: _583  and  _586
REMARK  243  A    between atoms: _586  and  _587
REMARK                            x       y       z     vdW  Elec       q    Type
REMARK                         _______ _______ _______ _____ _____    ______ ____
ROOT
ATOM      1  O   HOH     1    -131.079  35.504 132.157  0.00  0.00    +0.000 OA
ENDROOT
TORSDOF 0
REMARK  Name = ../refined-set-2016/2pqc/2pqc_pocket.pdb
REMARK  243 active torsions:
REMARK  status: ('A' for Active; 'I' for Inactive)
REMARK    1  A    between atoms: _1  and  _3
REMARK    2  A    between atoms: _3  and  _4
REMARK    3  A    between atoms: _3  and  _6
REMARK    4  A    between atoms: _6  and  _7
REMARK    5  A    between atoms: _10  and  _12
REMARK    6  A    between atoms: _12  and  _13
REMARK    7  A    between atoms: _12  and  _15
REMARK    8  A    between atoms: _15  and  _16
REMARK    9  A    between atoms: _16  and  _17
REMARK   10  A    between atoms: _17  and  _18
REMARK   11  A    between atoms: _18  and  _19
REMARK   12  A    between atoms: _23  and  _25
REMARK   13  A    between atoms: _25  and  _26
REMARK   14  A    between atoms: _25  and  _28
REMARK   15  A    between atoms: _28  and  _29
REMARK   16  A    between atoms: _31  and  _33
REMARK   17  A    between atoms: _33  and  _34
REMARK   18  A    between atoms: _33  and  _36
REMARK   19  A    between atoms: _36  and  _37
REMARK   20  A    between atoms: _40  and  _42
REMARK   21  A    between atoms: _42  and  _43
REMARK   22  A    between atoms: _42  and  _45
REMARK   23  A    between atoms: _45  and  _46
REMARK   24  A    between atoms: _48  and  _50
REMARK   25  A    between atoms: _50  and  _51
REMARK   26  A    between atoms: _50  and  _53
REMARK   27  A    between atoms: _53  and  _54
REMARK   28  A    between atoms: _59  and  _61
REMARK   29  A    between atoms: _61  and  _62
REMARK   30  A    between atoms: _61  and  _64
REMARK   31  A    between atoms: _64  and  _65
REMARK   32  A    between atoms: _65  and  _66
REMARK   33  A    between atoms: _66  and  _67
REMARK   34  A    between atoms: _76  and  _78
REMARK   35  A    between atoms: _78  and  _79
REMARK   36  A    between atoms: _78  and  _81
REMARK   37  A    between atoms: _81  and  _82
REMARK   38  A    between atoms: _85  and  _87
REMARK   39  A    between atoms: _87  and  _88
REMARK   40  A    between atoms: _87  and  _90
REMARK   41  A    between atoms: _90  and  _91
REMARK   42  A    between atoms: _96  and  _98
REMARK   43  A    between atoms: _98  and  _99
REMARK   44  A    between atoms: _102  and  _104
REMARK   45  A    between atoms: _104  and  _105
REMARK   46  A    between atoms: _108  and  _110
REMARK   47  A    between atoms: _110  and  _111
REMARK   48  A    between atoms: _110  and  _113
REMARK   49  A    between atoms: _113  and  _114
REMARK   50  A    between atoms: _117  and  _119
REMARK   51  A    between atoms: _119  and  _120
REMARK   52  A    between atoms: _122  and  _124
REMARK   53  A    between atoms: _124  and  _125
REMARK   54  A    between atoms: _124  and  _127
REMARK   55  A    between atoms: _129  and  _131
REMARK   56  A    between atoms: _131  and  _132
REMARK   57  A    between atoms: _131  and  _134
REMARK   58  A    between atoms: _134  and  _135
REMARK   59  A    between atoms: _135  and  _136
REMARK   60  A    between atoms: _136  and  _137
REMARK   61  A    between atoms: _146  and  _148
REMARK   62  A    between atoms: _148  and  _149
REMARK   63  A    between atoms: _148  and  _151
REMARK   64  A    between atoms: _151  and  _152
REMARK   65  A    between atoms: _155  and  _157
REMARK   66  A    between atoms: _157  and  _158
REMARK   67  A    between atoms: _157  and  _160
REMARK   68  A    between atoms: _160  and  _161
REMARK   69  A    between atoms: _163  and  _165
REMARK   70  A    between atoms: _165  and  _166
REMARK   71  A    between atoms: _165  and  _168
REMARK   72  A    between atoms: _168  and  _169
REMARK   73  A    between atoms: _172  and  _174
REMARK   74  A    between atoms: _174  and  _175
REMARK   75  A    between atoms: _174  and  _177
REMARK   76  A    between atoms: _177  and  _178
REMARK   77  A    between atoms: _178  and  _179
REMARK   78  A    between atoms: _179  and  _180
REMARK   79  A    between atoms: _190  and  _191
REMARK   80  A    between atoms: _196  and  _198
REMARK   81  A    between atoms: _198  and  _199
REMARK   82  A    between atoms: _198  and  _201
REMARK   83  A    between atoms: _201  and  _202
REMARK   84  A    between atoms: _202  and  _203
REMARK   85  A    between atoms: _203  and  _204
REMARK   86  A    between atoms: _213  and  _215
REMARK   87  A    between atoms: _215  and  _216
REMARK   88  A    between atoms: _215  and  _218
REMARK   89  A    between atoms: _221  and  _223
REMARK   90  A    between atoms: _223  and  _224
REMARK   91  A    between atoms: _223  and  _226
REMARK   92  A    between atoms: _229  and  _231
REMARK   93  A    between atoms: _231  and  _232
REMARK   94  A    between atoms: _231  and  _234
REMARK   95  A    between atoms: _234  and  _235
REMARK   96  A    between atoms: _235  and  _236
REMARK   97  A    between atoms: _238  and  _240
REMARK   98  A    between atoms: _240  and  _241
REMARK   99  A    between atoms: _244  and  _246
REMARK  100  A    between atoms: _246  and  _247
REMARK  101  A    between atoms: _246  and  _249
REMARK  102  A    between atoms: _249  and  _250
REMARK  103  A    between atoms: _252  and  _254
REMARK  104  A    between atoms: _254  and  _255
REMARK  105  A    between atoms: _258  and  _260
REMARK  106  A    between atoms: _260  and  _261
REMARK  107  A    between atoms: _260  and  _263
REMARK  108  A    between atoms: _263  and  _264
REMARK  109  A    between atoms: _264  and  _265
REMARK  110  A    between atoms: _270  and  _272
REMARK  111  A    between atoms: _272  and  _273
REMARK  112  A    between atoms: _272  and  _275
REMARK  113  A    between atoms: _278  and  _280
REMARK  114  A    between atoms: _280  and  _281
REMARK  115  A    between atoms: _280  and  _283
REMARK  116  A    between atoms: _283  and  _284
REMARK  117  A    between atoms: _284  and  _285
REMARK  118  A    between atoms: _285  and  _286
REMARK  119  A    between atoms: _286  and  _287
REMARK  120  A    between atoms: _291  and  _293
REMARK  121  A    between atoms: _293  and  _294
REMARK  122  A    between atoms: _293  and  _296
REMARK  123  A    between atoms: _296  and  _297
REMARK  124  A    between atoms: _299  and  _301
REMARK  125  A    between atoms: _301  and  _302
REMARK  126  A    between atoms: _305  and  _307
REMARK  127  A    between atoms: _307  and  _308
REMARK  128  A    between atoms: _307  and  _310
REMARK  129  A    between atoms: _310  and  _311
REMARK  130  A    between atoms: _314  and  _316
REMARK  131  A    between atoms: _316  and  _317
REMARK  132  A    between atoms: _316  and  _319
REMARK  133  A    between atoms: _319  and  _320
REMARK  134  A    between atoms: _320  and  _321
REMARK  135  A    between atoms: _321  and  _322
REMARK  136  A    between atoms: _331  and  _333
REMARK  137  A    between atoms: _333  and  _334
REMARK  138  A    between atoms: _333  and  _336
REMARK  139  A    between atoms: _336  and  _337
REMARK  140  A    between atoms: _340  and  _342
REMARK  141  A    between atoms: _342  and  _343
REMARK  142  A    between atoms: _342  and  _345
REMARK  143  A    between atoms: _345  and  _346
REMARK  144  A    between atoms: _351  and  _353
REMARK  145  A    between atoms: _353  and  _354
REMARK  146  A    between atoms: _353  and  _356
REMARK  147  A    between atoms: _356  and  _357
REMARK  148  A    between atoms: _360  and  _362
REMARK  149  A    between atoms: _362  and  _363
REMARK  150  A    between atoms: _362  and  _365
REMARK  151  A    between atoms: _365  and  _366
REMARK  152  A    between atoms: _369  and  _371
REMARK  153  A    between atoms: _371  and  _372
REMARK  154  A    between atoms: _371  and  _374
REMARK  155  A    between atoms: _374  and  _375
REMARK  156  A    between atoms: _377  and  _379
REMARK  157  A    between atoms: _379  and  _380
REMARK  158  A    between atoms: _379  and  _382
REMARK  159  A    between atoms: _382  and  _383
REMARK  160  A    between atoms: _383  and  _384
REMARK  161  A    between atoms: _384  and  _385
REMARK  162  A    between atoms: _394  and  _396
REMARK  163  A    between atoms: _396  and  _397
REMARK  164  A    between atoms: _401  and  _402
REMARK  165  A    between atoms: _407  and  _409
REMARK  166  A    between atoms: _409  and  _410
REMARK  167  A    between atoms: _409  and  _412
REMARK  168  A    between atoms: _412  and  _413
REMARK  169  A    between atoms: _413  and  _414
REMARK  170  A    between atoms: _416  and  _418
REMARK  171  A    between atoms: _418  and  _419
REMARK  172  A    between atoms: _418  and  _421
REMARK  173  A    between atoms: _421  and  _422
REMARK  174  A    between atoms: _425  and  _427
REMARK  175  A    between atoms: _427  and  _428
REMARK  176  A    between atoms: _427  and  _430
REMARK  177  A    between atoms: _430  and  _431
REMARK  178  A    between atoms: _434  and  _436
REMARK  179  A    between atoms: _436  and  _437
REMARK  180  A    between atoms: _436  and  _439
REMARK  181  A    between atoms: _439  and  _440
REMARK  182  A    between atoms: _440  and  _441
REMARK  183  A    between atoms: _445  and  _446
REMARK  184  A    between atoms: _451  and  _453
REMARK  185  A    between atoms: _453  and  _454
REMARK  186  A    between atoms: _453  and  _456
REMARK  187  A    between atoms: _456  and  _457
REMARK  188  A    between atoms: _457  and  _458
REMARK  189  A    between atoms: _461  and  _463
REMARK  190  A    between atoms: _463  and  _464
REMARK  191  A    between atoms: _463  and  _466
REMARK  192  A    between atoms: _466  and  _467
REMARK  193  A    between atoms: _470  and  _472
REMARK  194  A    between atoms: _472  and  _473
REMARK  195  A    between atoms: _472  and  _475
REMARK  196  A    between atoms: _478  and  _480
REMARK  197  A    between atoms: _480  and  _481
REMARK  198  A    between atoms: _480  and  _483
REMARK  199  A    between atoms: _483  and  _484
REMARK  200  A    between atoms: _484  and  _485
REMARK  201  A    between atoms: _485  and  _486
REMARK  202  A    between atoms: _486  and  _487
REMARK  203  A    between atoms: _491  and  _493
REMARK  204  A    between atoms: _493  and  _494
REMARK  205  A    between atoms: _493  and  _496
REMARK  206  A    between atoms: _496  and  _497
REMARK  207  A    between atoms: _497  and  _498
REMARK  208  A    between atoms: _501  and  _503
REMARK  209  A    between atoms: _503  and  _504
REMARK  210  A    between atoms: _503  and  _506
REMARK  211  A    between atoms: _506  and  _507
REMARK  212  A    between atoms: _509  and  _511
REMARK  213  A    between atoms: _511  and  _512
REMARK  214  A    between atoms: _511  and  _514
REMARK  215  A    between atoms: _514  and  _515
REMARK  216  A    between atoms: _515  and  _516
REMARK  217  A    between atoms: _516  and  _517
REMARK  218  A    between atoms: _526  and  _528
REMARK  219  A    between atoms: _528  and  _529
REMARK  220  A    between atoms: _528  and  _531
REMARK  221  A    between atoms: _531  and  _532
REMARK  222  A    between atoms: _535  and  _537
REMARK  223  A    between atoms: _537  and  _538
REMARK  224  A    between atoms: _537  and  _540
REMARK  225  A    between atoms: _540  and  _541
REMARK  226  A    between atoms: _546  and  _548
REMARK  227  A    between atoms: _548  and  _549
REMARK  228  A    between atoms: _548  and  _551
REMARK  229  A    between atoms: _551  and  _552
REMARK  230  A    between atoms: _552  and  _553
REMARK  231  A    between atoms: _553  and  _554
REMARK  232  A    between atoms: _563  and  _565
REMARK  233  A    between atoms: _565  and  _566
REMARK  234  A    between atoms: _565  and  _568
REMARK  235  A    between atoms: _568  and  _569
REMARK  236  A    between atoms: _572  and  _574
REMARK  237  A    between atoms: _574  and  _575
REMARK  238  A    between atoms: _574  and  _577
REMARK  239  A    between atoms: _577  and  _578
REMARK  240  A    between atoms: _581  and  _583
REMARK  241  A    between atoms: _583  and  _584
REMARK  242  A    between atoms: _583  and  _586
REMARK  243  A    between atoms: _586  and  _587
REMARK                            x       y       z     vdW  Elec       q    Type
REMARK                         _______ _______ _______ _____ _____    ______ ____
ROOT
ATOM      1  O   HOH     1    -128.257  35.053 118.939  0.00  0.00    +0.000 OA
ENDROOT
TORSDOF 0
REMARK  Name = ../refined-set-2016/2pqc/2pqc_pocket.pdb
REMARK  243 active torsions:
REMARK  status: ('A' for Active; 'I' for Inactive)
REMARK    1  A    between atoms: _1  and  _3
REMARK    2  A    between atoms: _3  and  _4
REMARK    3  A    between atoms: _3  and  _6
REMARK    4  A    between atoms: _6  and  _7
REMARK    5  A    between atoms: _10  and  _12
REMARK    6  A    between atoms: _12  and  _13
REMARK    7  A    between atoms: _12  and  _15
REMARK    8  A    between atoms: _15  and  _16
REMARK    9  A    between atoms: _16  and  _17
REMARK   10  A    between atoms: _17  and  _18
REMARK   11  A    between atoms: _18  and  _19
REMARK   12  A    between atoms: _23  and  _25
REMARK   13  A    between atoms: _25  and  _26
REMARK   14  A    between atoms: _25  and  _28
REMARK   15  A    between atoms: _28  and  _29
REMARK   16  A    between atoms: _31  and  _33
REMARK   17  A    between atoms: _33  and  _34
REMARK   18  A    between atoms: _33  and  _36
REMARK   19  A    between atoms: _36  and  _37
REMARK   20  A    between atoms: _40  and  _42
REMARK   21  A    between atoms: _42  and  _43
REMARK   22  A    between atoms: _42  and  _45
REMARK   23  A    between atoms: _45  and  _46
REMARK   24  A    between atoms: _48  and  _50
REMARK   25  A    between atoms: _50  and  _51
REMARK   26  A    between atoms: _50  and  _53
REMARK   27  A    between atoms: _53  and  _54
REMARK   28  A    between atoms: _59  and  _61
REMARK   29  A    between atoms: _61  and  _62
REMARK   30  A    between atoms: _61  and  _64
REMARK   31  A    between atoms: _64  and  _65
REMARK   32  A    between atoms: _65  and  _66
REMARK   33  A    between atoms: _66  and  _67
REMARK   34  A    between atoms: _76  and  _78
REMARK   35  A    between atoms: _78  and  _79
REMARK   36  A    between atoms: _78  and  _81
REMARK   37  A    between atoms: _81  and  _82
REMARK   38  A    between atoms: _85  and  _87
REMARK   39  A    between atoms: _87  and  _88
REMARK   40  A    between atoms: _87  and  _90
REMARK   41  A    between atoms: _90  and  _91
REMARK   42  A    between atoms: _96  and  _98
REMARK   43  A    between atoms: _98  and  _99
REMARK   44  A    between atoms: _102  and  _104
REMARK   45  A    between atoms: _104  and  _105
REMARK   46  A    between atoms: _108  and  _110
REMARK   47  A    between atoms: _110  and  _111
REMARK   48  A    between atoms: _110  and  _113
REMARK   49  A    between atoms: _113  and  _114
REMARK   50  A    between atoms: _117  and  _119
REMARK   51  A    between atoms: _119  and  _120
REMARK   52  A    between atoms: _122  and  _124
REMARK   53  A    between atoms: _124  and  _125
REMARK   54  A    between atoms: _124  and  _127
REMARK   55  A    between atoms: _129  and  _131
REMARK   56  A    between atoms: _131  and  _132
REMARK   57  A    between atoms: _131  and  _134
REMARK   58  A    between atoms: _134  and  _135
REMARK   59  A    between atoms: _135  and  _136
REMARK   60  A    between atoms: _136  and  _137
REMARK   61  A    between atoms: _146  and  _148
REMARK   62  A    between atoms: _148  and  _149
REMARK   63  A    between atoms: _148  and  _151
REMARK   64  A    between atoms: _151  and  _152
REMARK   65  A    between atoms: _155  and  _157
REMARK   66  A    between atoms: _157  and  _158
REMARK   67  A    between atoms: _157  and  _160
REMARK   68  A    between atoms: _160  and  _161
REMARK   69  A    between atoms: _163  and  _165
REMARK   70  A    between atoms: _165  and  _166
REMARK   71  A    between atoms: _165  and  _168
REMARK   72  A    between atoms: _168  and  _169
REMARK   73  A    between atoms: _172  and  _174
REMARK   74  A    between atoms: _174  and  _175
REMARK   75  A    between atoms: _174  and  _177
REMARK   76  A    between atoms: _177  and  _178
REMARK   77  A    between atoms: _178  and  _179
REMARK   78  A    between atoms: _179  and  _180
REMARK   79  A    between atoms: _190  and  _191
REMARK   80  A    between atoms: _196  and  _198
REMARK   81  A    between atoms: _198  and  _199
REMARK   82  A    between atoms: _198  and  _201
REMARK   83  A    between atoms: _201  and  _202
REMARK   84  A    between atoms: _202  and  _203
REMARK   85  A    between atoms: _203  and  _204
REMARK   86  A    between atoms: _213  and  _215
REMARK   87  A    between atoms: _215  and  _216
REMARK   88  A    between atoms: _215  and  _218
REMARK   89  A    between atoms: _221  and  _223
REMARK   90  A    between atoms: _223  and  _224
REMARK   91  A    between atoms: _223  and  _226
REMARK   92  A    between atoms: _229  and  _231
REMARK   93  A    between atoms: _231  and  _232
REMARK   94  A    between atoms: _231  and  _234
REMARK   95  A    between atoms: _234  and  _235
REMARK   96  A    between atoms: _235  and  _236
REMARK   97  A    between atoms: _238  and  _240
REMARK   98  A    between atoms: _240  and  _241
REMARK   99  A    between atoms: _244  and  _246
REMARK  100  A    between atoms: _246  and  _247
REMARK  101  A    between atoms: _246  and  _249
REMARK  102  A    between atoms: _249  and  _250
REMARK  103  A    between atoms: _252  and  _254
REMARK  104  A    between atoms: _254  and  _255
REMARK  105  A    between atoms: _258  and  _260
REMARK  106  A    between atoms: _260  and  _261
REMARK  107  A    between atoms: _260  and  _263
REMARK  108  A    between atoms: _263  and  _264
REMARK  109  A    between atoms: _264  and  _265
REMARK  110  A    between atoms: _270  and  _272
REMARK  111  A    between atoms: _272  and  _273
REMARK  112  A    between atoms: _272  and  _275
REMARK  113  A    between atoms: _278  and  _280
REMARK  114  A    between atoms: _280  and  _281
REMARK  115  A    between atoms: _280  and  _283
REMARK  116  A    between atoms: _283  and  _284
REMARK  117  A    between atoms: _284  and  _285
REMARK  118  A    between atoms: _285  and  _286
REMARK  119  A    between atoms: _286  and  _287
REMARK  120  A    between atoms: _291  and  _293
REMARK  121  A    between atoms: _293  and  _294
REMARK  122  A    between atoms: _293  and  _296
REMARK  123  A    between atoms: _296  and  _297
REMARK  124  A    between atoms: _299  and  _301
REMARK  125  A    between atoms: _301  and  _302
REMARK  126  A    between atoms: _305  and  _307
REMARK  127  A    between atoms: _307  and  _308
REMARK  128  A    between atoms: _307  and  _310
REMARK  129  A    between atoms: _310  and  _311
REMARK  130  A    between atoms: _314  and  _316
REMARK  131  A    between atoms: _316  and  _317
REMARK  132  A    between atoms: _316  and  _319
REMARK  133  A    between atoms: _319  and  _320
REMARK  134  A    between atoms: _320  and  _321
REMARK  135  A    between atoms: _321  and  _322
REMARK  136  A    between atoms: _331  and  _333
REMARK  137  A    between atoms: _333  and  _334
REMARK  138  A    between atoms: _333  and  _336
REMARK  139  A    between atoms: _336  and  _337
REMARK  140  A    between atoms: _340  and  _342
REMARK  141  A    between atoms: _342  and  _343
REMARK  142  A    between atoms: _342  and  _345
REMARK  143  A    between atoms: _345  and  _346
REMARK  144  A    between atoms: _351  and  _353
REMARK  145  A    between atoms: _353  and  _354
REMARK  146  A    between atoms: _353  and  _356
REMARK  147  A    between atoms: _356  and  _357
REMARK  148  A    between atoms: _360  and  _362
REMARK  149  A    between atoms: _362  and  _363
REMARK  150  A    between atoms: _362  and  _365
REMARK  151  A    between atoms: _365  and  _366
REMARK  152  A    between atoms: _369  and  _371
REMARK  153  A    between atoms: _371  and  _372
REMARK  154  A    between atoms: _371  and  _374
REMARK  155  A    between atoms: _374  and  _375
REMARK  156  A    between atoms: _377  and  _379
REMARK  157  A    between atoms: _379  and  _380
REMARK  158  A    between atoms: _379  and  _382
REMARK  159  A    between atoms: _382  and  _383
REMARK  160  A    between atoms: _383  and  _384
REMARK  161  A    between atoms: _384  and  _385
REMARK  162  A    between atoms: _394  and  _396
REMARK  163  A    between atoms: _396  and  _397
REMARK  164  A    between atoms: _401  and  _402
REMARK  165  A    between atoms: _407  and  _409
REMARK  166  A    between atoms: _409  and  _410
REMARK  167  A    between atoms: _409  and  _412
REMARK  168  A    between atoms: _412  and  _413
REMARK  169  A    between atoms: _413  and  _414
REMARK  170  A    between atoms: _416  and  _418
REMARK  171  A    between atoms: _418  and  _419
REMARK  172  A    between atoms: _418  and  _421
REMARK  173  A    between atoms: _421  and  _422
REMARK  174  A    between atoms: _425  and  _427
REMARK  175  A    between atoms: _427  and  _428
REMARK  176  A    between atoms: _427  and  _430
REMARK  177  A    between atoms: _430  and  _431
REMARK  178  A    between atoms: _434  and  _436
REMARK  179  A    between atoms: _436  and  _437
REMARK  180  A    between atoms: _436  and  _439
REMARK  181  A    between atoms: _439  and  _440
REMARK  182  A    between atoms: _440  and  _441
REMARK  183  A    between atoms: _445  and  _446
REMARK  184  A    between atoms: _451  and  _453
REMARK  185  A    between atoms: _453  and  _454
REMARK  186  A    between atoms: _453  and  _456
REMARK  187  A    between atoms: _456  and  _457
REMARK  188  A    between atoms: _457  and  _458
REMARK  189  A    between atoms: _461  and  _463
REMARK  190  A    between atoms: _463  and  _464
REMARK  191  A    between atoms: _463  and  _466
REMARK  192  A    between atoms: _466  and  _467
REMARK  193  A    between atoms: _470  and  _472
REMARK  194  A    between atoms: _472  and  _473
REMARK  195  A    between atoms: _472  and  _475
REMARK  196  A    between atoms: _478  and  _480
REMARK  197  A    between atoms: _480  and  _481
REMARK  198  A    between atoms: _480  and  _483
REMARK  199  A    between atoms: _483  and  _484
REMARK  200  A    between atoms: _484  and  _485
REMARK  201  A    between atoms: _485  and  _486
REMARK  202  A    between atoms: _486  and  _487
REMARK  203  A    between atoms: _491  and  _493
REMARK  204  A    between atoms: _493  and  _494
REMARK  205  A    between atoms: _493  and  _496
REMARK  206  A    between atoms: _496  and  _497
REMARK  207  A    between atoms: _497  and  _498
REMARK  208  A    between atoms: _501  and  _503
REMARK  209  A    between atoms: _503  and  _504
REMARK  210  A    between atoms: _503  and  _506
REMARK  211  A    between atoms: _506  and  _507
REMARK  212  A    between atoms: _509  and  _511
REMARK  213  A    between atoms: _511  and  _512
REMARK  214  A    between atoms: _511  and  _514
REMARK  215  A    between atoms: _514  and  _515
REMARK  216  A    between atoms: _515  and  _516
REMARK  217  A    between atoms: _516  and  _517
REMARK  218  A    between atoms: _526  and  _528
REMARK  219  A    between atoms: _528  and  _529
REMARK  220  A    between atoms: _528  and  _531
REMARK  221  A    between atoms: _531  and  _532
REMARK  222  A    between atoms: _535  and  _537
REMARK  223  A    between atoms: _537  and  _538
REMARK  224  A    between atoms: _537  and  _540
REMARK  225  A    between atoms: _540  and  _541
REMARK  226  A    between atoms: _546  and  _548
REMARK  227  A    between atoms: _548  and  _549
REMARK  228  A    between atoms: _548  and  _551
REMARK  229  A    between atoms: _551  and  _552
REMARK  230  A    between atoms: _552  and  _553
REMARK  231  A    between atoms: _553  and  _554
REMARK  232  A    between atoms: _563  and  _565
REMARK  233  A    between atoms: _565  and  _566
REMARK  234  A    between atoms: _565  and  _568
REMARK  235  A    between atoms: _568  and  _569
REMARK  236  A    between atoms: _572  and  _574
REMARK  237  A    between atoms: _574  and  _575
REMARK  238  A    between atoms: _574  and  _577
REMARK  239  A    between atoms: _577  and  _578
REMARK  240  A    between atoms: _581  and  _583
REMARK  241  A    between atoms: _583  and  _584
REMARK  242  A    between atoms: _583  and  _586
REMARK  243  A    between atoms: _586  and  _587
REMARK                            x       y       z     vdW  Elec       q    Type
REMARK                         _______ _______ _______ _____ _____    ______ ____
ROOT
ATOM      1  O   HOH     1    -137.490  33.829 132.418  0.00  0.00    +0.000 OA
ENDROOT
TORSDOF 0
REMARK  Name = ../refined-set-2016/2pqc/2pqc_pocket.pdb
REMARK  243 active torsions:
REMARK  status: ('A' for Active; 'I' for Inactive)
REMARK    1  A    between atoms: _1  and  _3
REMARK    2  A    between atoms: _3  and  _4
REMARK    3  A    between atoms: _3  and  _6
REMARK    4  A    between atoms: _6  and  _7
REMARK    5  A    between atoms: _10  and  _12
REMARK    6  A    between atoms: _12  and  _13
REMARK    7  A    between atoms: _12  and  _15
REMARK    8  A    between atoms: _15  and  _16
REMARK    9  A    between atoms: _16  and  _17
REMARK   10  A    between atoms: _17  and  _18
REMARK   11  A    between atoms: _18  and  _19
REMARK   12  A    between atoms: _23  and  _25
REMARK   13  A    between atoms: _25  and  _26
REMARK   14  A    between atoms: _25  and  _28
REMARK   15  A    between atoms: _28  and  _29
REMARK   16  A    between atoms: _31  and  _33
REMARK   17  A    between atoms: _33  and  _34
REMARK   18  A    between atoms: _33  and  _36
REMARK   19  A    between atoms: _36  and  _37
REMARK   20  A    between atoms: _40  and  _42
REMARK   21  A    between atoms: _42  and  _43
REMARK   22  A    between atoms: _42  and  _45
REMARK   23  A    between atoms: _45  and  _46
REMARK   24  A    between atoms: _48  and  _50
REMARK   25  A    between atoms: _50  and  _51
REMARK   26  A    between atoms: _50  and  _53
REMARK   27  A    between atoms: _53  and  _54
REMARK   28  A    between atoms: _59  and  _61
REMARK   29  A    between atoms: _61  and  _62
REMARK   30  A    between atoms: _61  and  _64
REMARK   31  A    between atoms: _64  and  _65
REMARK   32  A    between atoms: _65  and  _66
REMARK   33  A    between atoms: _66  and  _67
REMARK   34  A    between atoms: _76  and  _78
REMARK   35  A    between atoms: _78  and  _79
REMARK   36  A    between atoms: _78  and  _81
REMARK   37  A    between atoms: _81  and  _82
REMARK   38  A    between atoms: _85  and  _87
REMARK   39  A    between atoms: _87  and  _88
REMARK   40  A    between atoms: _87  and  _90
REMARK   41  A    between atoms: _90  and  _91
REMARK   42  A    between atoms: _96  and  _98
REMARK   43  A    between atoms: _98  and  _99
REMARK   44  A    between atoms: _102  and  _104
REMARK   45  A    between atoms: _104  and  _105
REMARK   46  A    between atoms: _108  and  _110
REMARK   47  A    between atoms: _110  and  _111
REMARK   48  A    between atoms: _110  and  _113
REMARK   49  A    between atoms: _113  and  _114
REMARK   50  A    between atoms: _117  and  _119
REMARK   51  A    between atoms: _119  and  _120
REMARK   52  A    between atoms: _122  and  _124
REMARK   53  A    between atoms: _124  and  _125
REMARK   54  A    between atoms: _124  and  _127
REMARK   55  A    between atoms: _129  and  _131
REMARK   56  A    between atoms: _131  and  _132
REMARK   57  A    between atoms: _131  and  _134
REMARK   58  A    between atoms: _134  and  _135
REMARK   59  A    between atoms: _135  and  _136
REMARK   60  A    between atoms: _136  and  _137
REMARK   61  A    between atoms: _146  and  _148
REMARK   62  A    between atoms: _148  and  _149
REMARK   63  A    between atoms: _148  and  _151
REMARK   64  A    between atoms: _151  and  _152
REMARK   65  A    between atoms: _155  and  _157
REMARK   66  A    between atoms: _157  and  _158
REMARK   67  A    between atoms: _157  and  _160
REMARK   68  A    between atoms: _160  and  _161
REMARK   69  A    between atoms: _163  and  _165
REMARK   70  A    between atoms: _165  and  _166
REMARK   71  A    between atoms: _165  and  _168
REMARK   72  A    between atoms: _168  and  _169
REMARK   73  A    between atoms: _172  and  _174
REMARK   74  A    between atoms: _174  and  _175
REMARK   75  A    between atoms: _174  and  _177
REMARK   76  A    between atoms: _177  and  _178
REMARK   77  A    between atoms: _178  and  _179
REMARK   78  A    between atoms: _179  and  _180
REMARK   79  A    between atoms: _190  and  _191
REMARK   80  A    between atoms: _196  and  _198
REMARK   81  A    between atoms: _198  and  _199
REMARK   82  A    between atoms: _198  and  _201
REMARK   83  A    between atoms: _201  and  _202
REMARK   84  A    between atoms: _202  and  _203
REMARK   85  A    between atoms: _203  and  _204
REMARK   86  A    between atoms: _213  and  _215
REMARK   87  A    between atoms: _215  and  _216
REMARK   88  A    between atoms: _215  and  _218
REMARK   89  A    between atoms: _221  and  _223
REMARK   90  A    between atoms: _223  and  _224
REMARK   91  A    between atoms: _223  and  _226
REMARK   92  A    between atoms: _229  and  _231
REMARK   93  A    between atoms: _231  and  _232
REMARK   94  A    between atoms: _231  and  _234
REMARK   95  A    between atoms: _234  and  _235
REMARK   96  A    between atoms: _235  and  _236
REMARK   97  A    between atoms: _238  and  _240
REMARK   98  A    between atoms: _240  and  _241
REMARK   99  A    between atoms: _244  and  _246
REMARK  100  A    between atoms: _246  and  _247
REMARK  101  A    between atoms: _246  and  _249
REMARK  102  A    between atoms: _249  and  _250
REMARK  103  A    between atoms: _252  and  _254
REMARK  104  A    between atoms: _254  and  _255
REMARK  105  A    between atoms: _258  and  _260
REMARK  106  A    between atoms: _260  and  _261
REMARK  107  A    between atoms: _260  and  _263
REMARK  108  A    between atoms: _263  and  _264
REMARK  109  A    between atoms: _264  and  _265
REMARK  110  A    between atoms: _270  and  _272
REMARK  111  A    between atoms: _272  and  _273
REMARK  112  A    between atoms: _272  and  _275
REMARK  113  A    between atoms: _278  and  _280
REMARK  114  A    between atoms: _280  and  _281
REMARK  115  A    between atoms: _280  and  _283
REMARK  116  A    between atoms: _283  and  _284
REMARK  117  A    between atoms: _284  and  _285
REMARK  118  A    between atoms: _285  and  _286
REMARK  119  A    between atoms: _286  and  _287
REMARK  120  A    between atoms: _291  and  _293
REMARK  121  A    between atoms: _293  and  _294
REMARK  122  A    between atoms: _293  and  _296
REMARK  123  A    between atoms: _296  and  _297
REMARK  124  A    between atoms: _299  and  _301
REMARK  125  A    between atoms: _301  and  _302
REMARK  126  A    between atoms: _305  and  _307
REMARK  127  A    between atoms: _307  and  _308
REMARK  128  A    between atoms: _307  and  _310
REMARK  129  A    between atoms: _310  and  _311
REMARK  130  A    between atoms: _314  and  _316
REMARK  131  A    between atoms: _316  and  _317
REMARK  132  A    between atoms: _316  and  _319
REMARK  133  A    between atoms: _319  and  _320
REMARK  134  A    between atoms: _320  and  _321
REMARK  135  A    between atoms: _321  and  _322
REMARK  136  A    between atoms: _331  and  _333
REMARK  137  A    between atoms: _333  and  _334
REMARK  138  A    between atoms: _333  and  _336
REMARK  139  A    between atoms: _336  and  _337
REMARK  140  A    between atoms: _340  and  _342
REMARK  141  A    between atoms: _342  and  _343
REMARK  142  A    between atoms: _342  and  _345
REMARK  143  A    between atoms: _345  and  _346
REMARK  144  A    between atoms: _351  and  _353
REMARK  145  A    between atoms: _353  and  _354
REMARK  146  A    between atoms: _353  and  _356
REMARK  147  A    between atoms: _356  and  _357
REMARK  148  A    between atoms: _360  and  _362
REMARK  149  A    between atoms: _362  and  _363
REMARK  150  A    between atoms: _362  and  _365
REMARK  151  A    between atoms: _365  and  _366
REMARK  152  A    between atoms: _369  and  _371
REMARK  153  A    between atoms: _371  and  _372
REMARK  154  A    between atoms: _371  and  _374
REMARK  155  A    between atoms: _374  and  _375
REMARK  156  A    between atoms: _377  and  _379
REMARK  157  A    between atoms: _379  and  _380
REMARK  158  A    between atoms: _379  and  _382
REMARK  159  A    between atoms: _382  and  _383
REMARK  160  A    between atoms: _383  and  _384
REMARK  161  A    between atoms: _384  and  _385
REMARK  162  A    between atoms: _394  and  _396
REMARK  163  A    between atoms: _396  and  _397
REMARK  164  A    between atoms: _401  and  _402
REMARK  165  A    between atoms: _407  and  _409
REMARK  166  A    between atoms: _409  and  _410
REMARK  167  A    between atoms: _409  and  _412
REMARK  168  A    between atoms: _412  and  _413
REMARK  169  A    between atoms: _413  and  _414
REMARK  170  A    between atoms: _416  and  _418
REMARK  171  A    between atoms: _418  and  _419
REMARK  172  A    between atoms: _418  and  _421
REMARK  173  A    between atoms: _421  and  _422
REMARK  174  A    between atoms: _425  and  _427
REMARK  175  A    between atoms: _427  and  _428
REMARK  176  A    between atoms: _427  and  _430
REMARK  177  A    between atoms: _430  and  _431
REMARK  178  A    between atoms: _434  and  _436
REMARK  179  A    between atoms: _436  and  _437
REMARK  180  A    between atoms: _436  and  _439
REMARK  181  A    between atoms: _439  and  _440
REMARK  182  A    between atoms: _440  and  _441
REMARK  183  A    between atoms: _445  and  _446
REMARK  184  A    between atoms: _451  and  _453
REMARK  185  A    between atoms: _453  and  _454
REMARK  186  A    between atoms: _453  and  _456
REMARK  187  A    between atoms: _456  and  _457
REMARK  188  A    between atoms: _457  and  _458
REMARK  189  A    between atoms: _461  and  _463
REMARK  190  A    between atoms: _463  and  _464
REMARK  191  A    between atoms: _463  and  _466
REMARK  192  A    between atoms: _466  and  _467
REMARK  193  A    between atoms: _470  and  _472
REMARK  194  A    between atoms: _472  and  _473
REMARK  195  A    between atoms: _472  and  _475
REMARK  196  A    between atoms: _478  and  _480
REMARK  197  A    between atoms: _480  and  _481
REMARK  198  A    between atoms: _480  and  _483
REMARK  199  A    between atoms: _483  and  _484
REMARK  200  A    between atoms: _484  and  _485
REMARK  201  A    between atoms: _485  and  _486
REMARK  202  A    between atoms: _486  and  _487
REMARK  203  A    between atoms: _491  and  _493
REMARK  204  A    between atoms: _493  and  _494
REMARK  205  A    between atoms: _493  and  _496
REMARK  206  A    between atoms: _496  and  _497
REMARK  207  A    between atoms: _497  and  _498
REMARK  208  A    between atoms: _501  and  _503
REMARK  209  A    between atoms: _503  and  _504
REMARK  210  A    between atoms: _503  and  _506
REMARK  211  A    between atoms: _506  and  _507
REMARK  212  A    between atoms: _509  and  _511
REMARK  213  A    between atoms: _511  and  _512
REMARK  214  A    between atoms: _511  and  _514
REMARK  215  A    between atoms: _514  and  _515
REMARK  216  A    between atoms: _515  and  _516
REMARK  217  A    between atoms: _516  and  _517
REMARK  218  A    between atoms: _526  and  _528
REMARK  219  A    between atoms: _528  and  _529
REMARK  220  A    between atoms: _528  and  _531
REMARK  221  A    between atoms: _531  and  _532
REMARK  222  A    between atoms: _535  and  _537
REMARK  223  A    between atoms: _537  and  _538
REMARK  224  A    between atoms: _537  and  _540
REMARK  225  A    between atoms: _540  and  _541
REMARK  226  A    between atoms: _546  and  _548
REMARK  227  A    between atoms: _548  and  _549
REMARK  228  A    between atoms: _548  and  _551
REMARK  229  A    between atoms: _551  and  _552
REMARK  230  A    between atoms: _552  and  _553
REMARK  231  A    between atoms: _553  and  _554
REMARK  232  A    between atoms: _563  and  _565
REMARK  233  A    between atoms: _565  and  _566
REMARK  234  A    between atoms: _565  and  _568
REMARK  235  A    between atoms: _568  and  _569
REMARK  236  A    between atoms: _572  and  _574
REMARK  237  A    between atoms: _574  and  _575
REMARK  238  A    between atoms: _574  and  _577
REMARK  239  A    between atoms: _577  and  _578
REMARK  240  A    between atoms: _581  and  _583
REMARK  241  A    between atoms: _583  and  _584
REMARK  242  A    between atoms: _583  and  _586
REMARK  243  A    between atoms: _586  and  _587
REMARK                            x       y       z     vdW  Elec       q    Type
REMARK                         _______ _______ _______ _____ _____    ______ ____
ROOT
ATOM      1  O   HOH     1    -126.266  34.573 114.784  0.00  0.00    +0.000 OA
ENDROOT
TORSDOF 0
REMARK  Name = ../refined-set-2016/2pqc/2pqc_pocket.pdb
REMARK  243 active torsions:
REMARK  status: ('A' for Active; 'I' for Inactive)
REMARK    1  A    between atoms: _1  and  _3
REMARK    2  A    between atoms: _3  and  _4
REMARK    3  A    between atoms: _3  and  _6
REMARK    4  A    between atoms: _6  and  _7
REMARK    5  A    between atoms: _10  and  _12
REMARK    6  A    between atoms: _12  and  _13
REMARK    7  A    between atoms: _12  and  _15
REMARK    8  A    between atoms: _15  and  _16
REMARK    9  A    between atoms: _16  and  _17
REMARK   10  A    between atoms: _17  and  _18
REMARK   11  A    between atoms: _18  and  _19
REMARK   12  A    between atoms: _23  and  _25
REMARK   13  A    between atoms: _25  and  _26
REMARK   14  A    between atoms: _25  and  _28
REMARK   15  A    between atoms: _28  and  _29
REMARK   16  A    between atoms: _31  and  _33
REMARK   17  A    between atoms: _33  and  _34
REMARK   18  A    between atoms: _33  and  _36
REMARK   19  A    between atoms: _36  and  _37
REMARK   20  A    between atoms: _40  and  _42
REMARK   21  A    between atoms: _42  and  _43
REMARK   22  A    between atoms: _42  and  _45
REMARK   23  A    between atoms: _45  and  _46
REMARK   24  A    between atoms: _48  and  _50
REMARK   25  A    between atoms: _50  and  _51
REMARK   26  A    between atoms: _50  and  _53
REMARK   27  A    between atoms: _53  and  _54
REMARK   28  A    between atoms: _59  and  _61
REMARK   29  A    between atoms: _61  and  _62
REMARK   30  A    between atoms: _61  and  _64
REMARK   31  A    between atoms: _64  and  _65
REMARK   32  A    between atoms: _65  and  _66
REMARK   33  A    between atoms: _66  and  _67
REMARK   34  A    between atoms: _76  and  _78
REMARK   35  A    between atoms: _78  and  _79
REMARK   36  A    between atoms: _78  and  _81
REMARK   37  A    between atoms: _81  and  _82
REMARK   38  A    between atoms: _85  and  _87
REMARK   39  A    between atoms: _87  and  _88
REMARK   40  A    between atoms: _87  and  _90
REMARK   41  A    between atoms: _90  and  _91
REMARK   42  A    between atoms: _96  and  _98
REMARK   43  A    between atoms: _98  and  _99
REMARK   44  A    between atoms: _102  and  _104
REMARK   45  A    between atoms: _104  and  _105
REMARK   46  A    between atoms: _108  and  _110
REMARK   47  A    between atoms: _110  and  _111
REMARK   48  A    between atoms: _110  and  _113
REMARK   49  A    between atoms: _113  and  _114
REMARK   50  A    between atoms: _117  and  _119
REMARK   51  A    between atoms: _119  and  _120
REMARK   52  A    between atoms: _122  and  _124
REMARK   53  A    between atoms: _124  and  _125
REMARK   54  A    between atoms: _124  and  _127
REMARK   55  A    between atoms: _129  and  _131
REMARK   56  A    between atoms: _131  and  _132
REMARK   57  A    between atoms: _131  and  _134
REMARK   58  A    between atoms: _134  and  _135
REMARK   59  A    between atoms: _135  and  _136
REMARK   60  A    between atoms: _136  and  _137
REMARK   61  A    between atoms: _146  and  _148
REMARK   62  A    between atoms: _148  and  _149
REMARK   63  A    between atoms: _148  and  _151
REMARK   64  A    between atoms: _151  and  _152
REMARK   65  A    between atoms: _155  and  _157
REMARK   66  A    between atoms: _157  and  _158
REMARK   67  A    between atoms: _157  and  _160
REMARK   68  A    between atoms: _160  and  _161
REMARK   69  A    between atoms: _163  and  _165
REMARK   70  A    between atoms: _165  and  _166
REMARK   71  A    between atoms: _165  and  _168
REMARK   72  A    between atoms: _168  and  _169
REMARK   73  A    between atoms: _172  and  _174
REMARK   74  A    between atoms: _174  and  _175
REMARK   75  A    between atoms: _174  and  _177
REMARK   76  A    between atoms: _177  and  _178
REMARK   77  A    between atoms: _178  and  _179
REMARK   78  A    between atoms: _179  and  _180
REMARK   79  A    between atoms: _190  and  _191
REMARK   80  A    between atoms: _196  and  _198
REMARK   81  A    between atoms: _198  and  _199
REMARK   82  A    between atoms: _198  and  _201
REMARK   83  A    between atoms: _201  and  _202
REMARK   84  A    between atoms: _202  and  _203
REMARK   85  A    between atoms: _203  and  _204
REMARK   86  A    between atoms: _213  and  _215
REMARK   87  A    between atoms: _215  and  _216
REMARK   88  A    between atoms: _215  and  _218
REMARK   89  A    between atoms: _221  and  _223
REMARK   90  A    between atoms: _223  and  _224
REMARK   91  A    between atoms: _223  and  _226
REMARK   92  A    between atoms: _229  and  _231
REMARK   93  A    between atoms: _231  and  _232
REMARK   94  A    between atoms: _231  and  _234
REMARK   95  A    between atoms: _234  and  _235
REMARK   96  A    between atoms: _235  and  _236
REMARK   97  A    between atoms: _238  and  _240
REMARK   98  A    between atoms: _240  and  _241
REMARK   99  A    between atoms: _244  and  _246
REMARK  100  A    between atoms: _246  and  _247
REMARK  101  A    between atoms: _246  and  _249
REMARK  102  A    between atoms: _249  and  _250
REMARK  103  A    between atoms: _252  and  _254
REMARK  104  A    between atoms: _254  and  _255
REMARK  105  A    between atoms: _258  and  _260
REMARK  106  A    between atoms: _260  and  _261
REMARK  107  A    between atoms: _260  and  _263
REMARK  108  A    between atoms: _263  and  _264
REMARK  109  A    between atoms: _264  and  _265
REMARK  110  A    between atoms: _270  and  _272
REMARK  111  A    between atoms: _272  and  _273
REMARK  112  A    between atoms: _272  and  _275
REMARK  113  A    between atoms: _278  and  _280
REMARK  114  A    between atoms: _280  and  _281
REMARK  115  A    between atoms: _280  and  _283
REMARK  116  A    between atoms: _283  and  _284
REMARK  117  A    between atoms: _284  and  _285
REMARK  118  A    between atoms: _285  and  _286
REMARK  119  A    between atoms: _286  and  _287
REMARK  120  A    between atoms: _291  and  _293
REMARK  121  A    between atoms: _293  and  _294
REMARK  122  A    between atoms: _293  and  _296
REMARK  123  A    between atoms: _296  and  _297
REMARK  124  A    between atoms: _299  and  _301
REMARK  125  A    between atoms: _301  and  _302
REMARK  126  A    between atoms: _305  and  _307
REMARK  127  A    between atoms: _307  and  _308
REMARK  128  A    between atoms: _307  and  _310
REMARK  129  A    between atoms: _310  and  _311
REMARK  130  A    between atoms: _314  and  _316
REMARK  131  A    between atoms: _316  and  _317
REMARK  132  A    between atoms: _316  and  _319
REMARK  133  A    between atoms: _319  and  _320
REMARK  134  A    between atoms: _320  and  _321
REMARK  135  A    between atoms: _321  and  _322
REMARK  136  A    between atoms: _331  and  _333
REMARK  137  A    between atoms: _333  and  _334
REMARK  138  A    between atoms: _333  and  _336
REMARK  139  A    between atoms: _336  and  _337
REMARK  140  A    between atoms: _340  and  _342
REMARK  141  A    between atoms: _342  and  _343
REMARK  142  A    between atoms: _342  and  _345
REMARK  143  A    between atoms: _345  and  _346
REMARK  144  A    between atoms: _351  and  _353
REMARK  145  A    between atoms: _353  and  _354
REMARK  146  A    between atoms: _353  and  _356
REMARK  147  A    between atoms: _356  and  _357
REMARK  148  A    between atoms: _360  and  _362
REMARK  149  A    between atoms: _362  and  _363
REMARK  150  A    between atoms: _362  and  _365
REMARK  151  A    between atoms: _365  and  _366
REMARK  152  A    between atoms: _369  and  _371
REMARK  153  A    between atoms: _371  and  _372
REMARK  154  A    between atoms: _371  and  _374
REMARK  155  A    between atoms: _374  and  _375
REMARK  156  A    between atoms: _377  and  _379
REMARK  157  A    between atoms: _379  and  _380
REMARK  158  A    between atoms: _379  and  _382
REMARK  159  A    between atoms: _382  and  _383
REMARK  160  A    between atoms: _383  and  _384
REMARK  161  A    between atoms: _384  and  _385
REMARK  162  A    between atoms: _394  and  _396
REMARK  163  A    between atoms: _396  and  _397
REMARK  164  A    between atoms: _401  and  _402
REMARK  165  A    between atoms: _407  and  _409
REMARK  166  A    between atoms: _409  and  _410
REMARK  167  A    between atoms: _409  and  _412
REMARK  168  A    between atoms: _412  and  _413
REMARK  169  A    between atoms: _413  and  _414
REMARK  170  A    between atoms: _416  and  _418
REMARK  171  A    between atoms: _418  and  _419
REMARK  172  A    between atoms: _418  and  _421
REMARK  173  A    between atoms: _421  and  _422
REMARK  174  A    between atoms: _425  and  _427
REMARK  175  A    between atoms: _427  and  _428
REMARK  176  A    between atoms: _427  and  _430
REMARK  177  A    between atoms: _430  and  _431
REMARK  178  A    between atoms: _434  and  _436
REMARK  179  A    between atoms: _436  and  _437
REMARK  180  A    between atoms: _436  and  _439
REMARK  181  A    between atoms: _439  and  _440
REMARK  182  A    between atoms: _440  and  _441
REMARK  183  A    between atoms: _445  and  _446
REMARK  184  A    between atoms: _451  and  _453
REMARK  185  A    between atoms: _453  and  _454
REMARK  186  A    between atoms: _453  and  _456
REMARK  187  A    between atoms: _456  and  _457
REMARK  188  A    between atoms: _457  and  _458
REMARK  189  A    between atoms: _461  and  _463
REMARK  190  A    between atoms: _463  and  _464
REMARK  191  A    between atoms: _463  and  _466
REMARK  192  A    between atoms: _466  and  _467
REMARK  193  A    between atoms: _470  and  _472
REMARK  194  A    between atoms: _472  and  _473
REMARK  195  A    between atoms: _472  and  _475
REMARK  196  A    between atoms: _478  and  _480
REMARK  197  A    between atoms: _480  and  _481
REMARK  198  A    between atoms: _480  and  _483
REMARK  199  A    between atoms: _483  and  _484
REMARK  200  A    between atoms: _484  and  _485
REMARK  201  A    between atoms: _485  and  _486
REMARK  202  A    between atoms: _486  and  _487
REMARK  203  A    between atoms: _491  and  _493
REMARK  204  A    between atoms: _493  and  _494
REMARK  205  A    between atoms: _493  and  _496
REMARK  206  A    between atoms: _496  and  _497
REMARK  207  A    between atoms: _497  and  _498
REMARK  208  A    between atoms: _501  and  _503
REMARK  209  A    between atoms: _503  and  _504
REMARK  210  A    between atoms: _503  and  _506
REMARK  211  A    between atoms: _506  and  _507
REMARK  212  A    between atoms: _509  and  _511
REMARK  213  A    between atoms: _511  and  _512
REMARK  214  A    between atoms: _511  and  _514
REMARK  215  A    between atoms: _514  and  _515
REMARK  216  A    between atoms: _515  and  _516
REMARK  217  A    between atoms: _516  and  _517
REMARK  218  A    between atoms: _526  and  _528
REMARK  219  A    between atoms: _528  and  _529
REMARK  220  A    between atoms: _528  and  _531
REMARK  221  A    between atoms: _531  and  _532
REMARK  222  A    between atoms: _535  and  _537
REMARK  223  A    between atoms: _537  and  _538
REMARK  224  A    between atoms: _537  and  _540
REMARK  225  A    between atoms: _540  and  _541
REMARK  226  A    between atoms: _546  and  _548
REMARK  227  A    between atoms: _548  and  _549
REMARK  228  A    between atoms: _548  and  _551
REMARK  229  A    between atoms: _551  and  _552
REMARK  230  A    between atoms: _552  and  _553
REMARK  231  A    between atoms: _553  and  _554
REMARK  232  A    between atoms: _563  and  _565
REMARK  233  A    between atoms: _565  and  _566
REMARK  234  A    between atoms: _565  and  _568
REMARK  235  A    between atoms: _568  and  _569
REMARK  236  A    between atoms: _572  and  _574
REMARK  237  A    between atoms: _574  and  _575
REMARK  238  A    between atoms: _574  and  _577
REMARK  239  A    between atoms: _577  and  _578
REMARK  240  A    between atoms: _581  and  _583
REMARK  241  A    between atoms: _583  and  _584
REMARK  242  A    between atoms: _583  and  _586
REMARK  243  A    between atoms: _586  and  _587
REMARK                            x       y       z     vdW  Elec       q    Type
REMARK                         _______ _______ _______ _____ _____    ______ ____
ROOT
ATOM      1  O   HOH     1    -125.618  28.257 121.379  0.00  0.00    +0.000 OA
ENDROOT
TORSDOF 0
REMARK  Name = ../refined-set-2016/2pqc/2pqc_pocket.pdb
REMARK  243 active torsions:
REMARK  status: ('A' for Active; 'I' for Inactive)
REMARK    1  A    between atoms: _1  and  _3
REMARK    2  A    between atoms: _3  and  _4
REMARK    3  A    between atoms: _3  and  _6
REMARK    4  A    between atoms: _6  and  _7
REMARK    5  A    between atoms: _10  and  _12
REMARK    6  A    between atoms: _12  and  _13
REMARK    7  A    between atoms: _12  and  _15
REMARK    8  A    between atoms: _15  and  _16
REMARK    9  A    between atoms: _16  and  _17
REMARK   10  A    between atoms: _17  and  _18
REMARK   11  A    between atoms: _18  and  _19
REMARK   12  A    between atoms: _23  and  _25
REMARK   13  A    between atoms: _25  and  _26
REMARK   14  A    between atoms: _25  and  _28
REMARK   15  A    between atoms: _28  and  _29
REMARK   16  A    between atoms: _31  and  _33
REMARK   17  A    between atoms: _33  and  _34
REMARK   18  A    between atoms: _33  and  _36
REMARK   19  A    between atoms: _36  and  _37
REMARK   20  A    between atoms: _40  and  _42
REMARK   21  A    between atoms: _42  and  _43
REMARK   22  A    between atoms: _42  and  _45
REMARK   23  A    between atoms: _45  and  _46
REMARK   24  A    between atoms: _48  and  _50
REMARK   25  A    between atoms: _50  and  _51
REMARK   26  A    between atoms: _50  and  _53
REMARK   27  A    between atoms: _53  and  _54
REMARK   28  A    between atoms: _59  and  _61
REMARK   29  A    between atoms: _61  and  _62
REMARK   30  A    between atoms: _61  and  _64
REMARK   31  A    between atoms: _64  and  _65
REMARK   32  A    between atoms: _65  and  _66
REMARK   33  A    between atoms: _66  and  _67
REMARK   34  A    between atoms: _76  and  _78
REMARK   35  A    between atoms: _78  and  _79
REMARK   36  A    between atoms: _78  and  _81
REMARK   37  A    between atoms: _81  and  _82
REMARK   38  A    between atoms: _85  and  _87
REMARK   39  A    between atoms: _87  and  _88
REMARK   40  A    between atoms: _87  and  _90
REMARK   41  A    between atoms: _90  and  _91
REMARK   42  A    between atoms: _96  and  _98
REMARK   43  A    between atoms: _98  and  _99
REMARK   44  A    between atoms: _102  and  _104
REMARK   45  A    between atoms: _104  and  _105
REMARK   46  A    between atoms: _108  and  _110
REMARK   47  A    between atoms: _110  and  _111
REMARK   48  A    between atoms: _110  and  _113
REMARK   49  A    between atoms: _113  and  _114
REMARK   50  A    between atoms: _117  and  _119
REMARK   51  A    between atoms: _119  and  _120
REMARK   52  A    between atoms: _122  and  _124
REMARK   53  A    between atoms: _124  and  _125
REMARK   54  A    between atoms: _124  and  _127
REMARK   55  A    between atoms: _129  and  _131
REMARK   56  A    between atoms: _131  and  _132
REMARK   57  A    between atoms: _131  and  _134
REMARK   58  A    between atoms: _134  and  _135
REMARK   59  A    between atoms: _135  and  _136
REMARK   60  A    between atoms: _136  and  _137
REMARK   61  A    between atoms: _146  and  _148
REMARK   62  A    between atoms: _148  and  _149
REMARK   63  A    between atoms: _148  and  _151
REMARK   64  A    between atoms: _151  and  _152
REMARK   65  A    between atoms: _155  and  _157
REMARK   66  A    between atoms: _157  and  _158
REMARK   67  A    between atoms: _157  and  _160
REMARK   68  A    between atoms: _160  and  _161
REMARK   69  A    between atoms: _163  and  _165
REMARK   70  A    between atoms: _165  and  _166
REMARK   71  A    between atoms: _165  and  _168
REMARK   72  A    between atoms: _168  and  _169
REMARK   73  A    between atoms: _172  and  _174
REMARK   74  A    between atoms: _174  and  _175
REMARK   75  A    between atoms: _174  and  _177
REMARK   76  A    between atoms: _177  and  _178
REMARK   77  A    between atoms: _178  and  _179
REMARK   78  A    between atoms: _179  and  _180
REMARK   79  A    between atoms: _190  and  _191
REMARK   80  A    between atoms: _196  and  _198
REMARK   81  A    between atoms: _198  and  _199
REMARK   82  A    between atoms: _198  and  _201
REMARK   83  A    between atoms: _201  and  _202
REMARK   84  A    between atoms: _202  and  _203
REMARK   85  A    between atoms: _203  and  _204
REMARK   86  A    between atoms: _213  and  _215
REMARK   87  A    between atoms: _215  and  _216
REMARK   88  A    between atoms: _215  and  _218
REMARK   89  A    between atoms: _221  and  _223
REMARK   90  A    between atoms: _223  and  _224
REMARK   91  A    between atoms: _223  and  _226
REMARK   92  A    between atoms: _229  and  _231
REMARK   93  A    between atoms: _231  and  _232
REMARK   94  A    between atoms: _231  and  _234
REMARK   95  A    between atoms: _234  and  _235
REMARK   96  A    between atoms: _235  and  _236
REMARK   97  A    between atoms: _238  and  _240
REMARK   98  A    between atoms: _240  and  _241
REMARK   99  A    between atoms: _244  and  _246
REMARK  100  A    between atoms: _246  and  _247
REMARK  101  A    between atoms: _246  and  _249
REMARK  102  A    between atoms: _249  and  _250
REMARK  103  A    between atoms: _252  and  _254
REMARK  104  A    between atoms: _254  and  _255
REMARK  105  A    between atoms: _258  and  _260
REMARK  106  A    between atoms: _260  and  _261
REMARK  107  A    between atoms: _260  and  _263
REMARK  108  A    between atoms: _263  and  _264
REMARK  109  A    between atoms: _264  and  _265
REMARK  110  A    between atoms: _270  and  _272
REMARK  111  A    between atoms: _272  and  _273
REMARK  112  A    between atoms: _272  and  _275
REMARK  113  A    between atoms: _278  and  _280
REMARK  114  A    between atoms: _280  and  _281
REMARK  115  A    between atoms: _280  and  _283
REMARK  116  A    between atoms: _283  and  _284
REMARK  117  A    between atoms: _284  and  _285
REMARK  118  A    between atoms: _285  and  _286
REMARK  119  A    between atoms: _286  and  _287
REMARK  120  A    between atoms: _291  and  _293
REMARK  121  A    between atoms: _293  and  _294
REMARK  122  A    between atoms: _293  and  _296
REMARK  123  A    between atoms: _296  and  _297
REMARK  124  A    between atoms: _299  and  _301
REMARK  125  A    between atoms: _301  and  _302
REMARK  126  A    between atoms: _305  and  _307
REMARK  127  A    between atoms: _307  and  _308
REMARK  128  A    between atoms: _307  and  _310
REMARK  129  A    between atoms: _310  and  _311
REMARK  130  A    between atoms: _314  and  _316
REMARK  131  A    between atoms: _316  and  _317
REMARK  132  A    between atoms: _316  and  _319
REMARK  133  A    between atoms: _319  and  _320
REMARK  134  A    between atoms: _320  and  _321
REMARK  135  A    between atoms: _321  and  _322
REMARK  136  A    between atoms: _331  and  _333
REMARK  137  A    between atoms: _333  and  _334
REMARK  138  A    between atoms: _333  and  _336
REMARK  139  A    between atoms: _336  and  _337
REMARK  140  A    between atoms: _340  and  _342
REMARK  141  A    between atoms: _342  and  _343
REMARK  142  A    between atoms: _342  and  _345
REMARK  143  A    between atoms: _345  and  _346
REMARK  144  A    between atoms: _351  and  _353
REMARK  145  A    between atoms: _353  and  _354
REMARK  146  A    between atoms: _353  and  _356
REMARK  147  A    between atoms: _356  and  _357
REMARK  148  A    between atoms: _360  and  _362
REMARK  149  A    between atoms: _362  and  _363
REMARK  150  A    between atoms: _362  and  _365
REMARK  151  A    between atoms: _365  and  _366
REMARK  152  A    between atoms: _369  and  _371
REMARK  153  A    between atoms: _371  and  _372
REMARK  154  A    between atoms: _371  and  _374
REMARK  155  A    between atoms: _374  and  _375
REMARK  156  A    between atoms: _377  and  _379
REMARK  157  A    between atoms: _379  and  _380
REMARK  158  A    between atoms: _379  and  _382
REMARK  159  A    between atoms: _382  and  _383
REMARK  160  A    between atoms: _383  and  _384
REMARK  161  A    between atoms: _384  and  _385
REMARK  162  A    between atoms: _394  and  _396
REMARK  163  A    between atoms: _396  and  _397
REMARK  164  A    between atoms: _401  and  _402
REMARK  165  A    between atoms: _407  and  _409
REMARK  166  A    between atoms: _409  and  _410
REMARK  167  A    between atoms: _409  and  _412
REMARK  168  A    between atoms: _412  and  _413
REMARK  169  A    between atoms: _413  and  _414
REMARK  170  A    between atoms: _416  and  _418
REMARK  171  A    between atoms: _418  and  _419
REMARK  172  A    between atoms: _418  and  _421
REMARK  173  A    between atoms: _421  and  _422
REMARK  174  A    between atoms: _425  and  _427
REMARK  175  A    between atoms: _427  and  _428
REMARK  176  A    between atoms: _427  and  _430
REMARK  177  A    between atoms: _430  and  _431
REMARK  178  A    between atoms: _434  and  _436
REMARK  179  A    between atoms: _436  and  _437
REMARK  180  A    between atoms: _436  and  _439
REMARK  181  A    between atoms: _439  and  _440
REMARK  182  A    between atoms: _440  and  _441
REMARK  183  A    between atoms: _445  and  _446
REMARK  184  A    between atoms: _451  and  _453
REMARK  185  A    between atoms: _453  and  _454
REMARK  186  A    between atoms: _453  and  _456
REMARK  187  A    between atoms: _456  and  _457
REMARK  188  A    between atoms: _457  and  _458
REMARK  189  A    between atoms: _461  and  _463
REMARK  190  A    between atoms: _463  and  _464
REMARK  191  A    between atoms: _463  and  _466
REMARK  192  A    between atoms: _466  and  _467
REMARK  193  A    between atoms: _470  and  _472
REMARK  194  A    between atoms: _472  and  _473
REMARK  195  A    between atoms: _472  and  _475
REMARK  196  A    between atoms: _478  and  _480
REMARK  197  A    between atoms: _480  and  _481
REMARK  198  A    between atoms: _480  and  _483
REMARK  199  A    between atoms: _483  and  _484
REMARK  200  A    between atoms: _484  and  _485
REMARK  201  A    between atoms: _485  and  _486
REMARK  202  A    between atoms: _486  and  _487
REMARK  203  A    between atoms: _491  and  _493
REMARK  204  A    between atoms: _493  and  _494
REMARK  205  A    between atoms: _493  and  _496
REMARK  206  A    between atoms: _496  and  _497
REMARK  207  A    between atoms: _497  and  _498
REMARK  208  A    between atoms: _501  and  _503
REMARK  209  A    between atoms: _503  and  _504
REMARK  210  A    between atoms: _503  and  _506
REMARK  211  A    between atoms: _506  and  _507
REMARK  212  A    between atoms: _509  and  _511
REMARK  213  A    between atoms: _511  and  _512
REMARK  214  A    between atoms: _511  and  _514
REMARK  215  A    between atoms: _514  and  _515
REMARK  216  A    between atoms: _515  and  _516
REMARK  217  A    between atoms: _516  and  _517
REMARK  218  A    between atoms: _526  and  _528
REMARK  219  A    between atoms: _528  and  _529
REMARK  220  A    between atoms: _528  and  _531
REMARK  221  A    between atoms: _531  and  _532
REMARK  222  A    between atoms: _535  and  _537
REMARK  223  A    between atoms: _537  and  _538
REMARK  224  A    between atoms: _537  and  _540
REMARK  225  A    between atoms: _540  and  _541
REMARK  226  A    between atoms: _546  and  _548
REMARK  227  A    between atoms: _548  and  _549
REMARK  228  A    between atoms: _548  and  _551
REMARK  229  A    between atoms: _551  and  _552
REMARK  230  A    between atoms: _552  and  _553
REMARK  231  A    between atoms: _553  and  _554
REMARK  232  A    between atoms: _563  and  _565
REMARK  233  A    between atoms: _565  and  _566
REMARK  234  A    between atoms: _565  and  _568
REMARK  235  A    between atoms: _568  and  _569
REMARK  236  A    between atoms: _572  and  _574
REMARK  237  A    between atoms: _574  and  _575
REMARK  238  A    between atoms: _574  and  _577
REMARK  239  A    between atoms: _577  and  _578
REMARK  240  A    between atoms: _581  and  _583
REMARK  241  A    between atoms: _583  and  _584
REMARK  242  A    between atoms: _583  and  _586
REMARK  243  A    between atoms: _586  and  _587
REMARK                            x       y       z     vdW  Elec       q    Type
REMARK                         _______ _______ _______ _____ _____    ______ ____
ROOT
ATOM      1  O   HOH     1    -130.914  27.729 131.307  0.00  0.00    +0.000 OA
ENDROOT
TORSDOF 0
REMARK  Name = ../refined-set-2016/2pqc/2pqc_pocket.pdb
REMARK  243 active torsions:
REMARK  status: ('A' for Active; 'I' for Inactive)
REMARK    1  A    between atoms: _1  and  _3
REMARK    2  A    between atoms: _3  and  _4
REMARK    3  A    between atoms: _3  and  _6
REMARK    4  A    between atoms: _6  and  _7
REMARK    5  A    between atoms: _10  and  _12
REMARK    6  A    between atoms: _12  and  _13
REMARK    7  A    between atoms: _12  and  _15
REMARK    8  A    between atoms: _15  and  _16
REMARK    9  A    between atoms: _16  and  _17
REMARK   10  A    between atoms: _17  and  _18
REMARK   11  A    between atoms: _18  and  _19
REMARK   12  A    between atoms: _23  and  _25
REMARK   13  A    between atoms: _25  and  _26
REMARK   14  A    between atoms: _25  and  _28
REMARK   15  A    between atoms: _28  and  _29
REMARK   16  A    between atoms: _31  and  _33
REMARK   17  A    between atoms: _33  and  _34
REMARK   18  A    between atoms: _33  and  _36
REMARK   19  A    between atoms: _36  and  _37
REMARK   20  A    between atoms: _40  and  _42
REMARK   21  A    between atoms: _42  and  _43
REMARK   22  A    between atoms: _42  and  _45
REMARK   23  A    between atoms: _45  and  _46
REMARK   24  A    between atoms: _48  and  _50
REMARK   25  A    between atoms: _50  and  _51
REMARK   26  A    between atoms: _50  and  _53
REMARK   27  A    between atoms: _53  and  _54
REMARK   28  A    between atoms: _59  and  _61
REMARK   29  A    between atoms: _61  and  _62
REMARK   30  A    between atoms: _61  and  _64
REMARK   31  A    between atoms: _64  and  _65
REMARK   32  A    between atoms: _65  and  _66
REMARK   33  A    between atoms: _66  and  _67
REMARK   34  A    between atoms: _76  and  _78
REMARK   35  A    between atoms: _78  and  _79
REMARK   36  A    between atoms: _78  and  _81
REMARK   37  A    between atoms: _81  and  _82
REMARK   38  A    between atoms: _85  and  _87
REMARK   39  A    between atoms: _87  and  _88
REMARK   40  A    between atoms: _87  and  _90
REMARK   41  A    between atoms: _90  and  _91
REMARK   42  A    between atoms: _96  and  _98
REMARK   43  A    between atoms: _98  and  _99
REMARK   44  A    between atoms: _102  and  _104
REMARK   45  A    between atoms: _104  and  _105
REMARK   46  A    between atoms: _108  and  _110
REMARK   47  A    between atoms: _110  and  _111
REMARK   48  A    between atoms: _110  and  _113
REMARK   49  A    between atoms: _113  and  _114
REMARK   50  A    between atoms: _117  and  _119
REMARK   51  A    between atoms: _119  and  _120
REMARK   52  A    between atoms: _122  and  _124
REMARK   53  A    between atoms: _124  and  _125
REMARK   54  A    between atoms: _124  and  _127
REMARK   55  A    between atoms: _129  and  _131
REMARK   56  A    between atoms: _131  and  _132
REMARK   57  A    between atoms: _131  and  _134
REMARK   58  A    between atoms: _134  and  _135
REMARK   59  A    between atoms: _135  and  _136
REMARK   60  A    between atoms: _136  and  _137
REMARK   61  A    between atoms: _146  and  _148
REMARK   62  A    between atoms: _148  and  _149
REMARK   63  A    between atoms: _148  and  _151
REMARK   64  A    between atoms: _151  and  _152
REMARK   65  A    between atoms: _155  and  _157
REMARK   66  A    between atoms: _157  and  _158
REMARK   67  A    between atoms: _157  and  _160
REMARK   68  A    between atoms: _160  and  _161
REMARK   69  A    between atoms: _163  and  _165
REMARK   70  A    between atoms: _165  and  _166
REMARK   71  A    between atoms: _165  and  _168
REMARK   72  A    between atoms: _168  and  _169
REMARK   73  A    between atoms: _172  and  _174
REMARK   74  A    between atoms: _174  and  _175
REMARK   75  A    between atoms: _174  and  _177
REMARK   76  A    between atoms: _177  and  _178
REMARK   77  A    between atoms: _178  and  _179
REMARK   78  A    between atoms: _179  and  _180
REMARK   79  A    between atoms: _190  and  _191
REMARK   80  A    between atoms: _196  and  _198
REMARK   81  A    between atoms: _198  and  _199
REMARK   82  A    between atoms: _198  and  _201
REMARK   83  A    between atoms: _201  and  _202
REMARK   84  A    between atoms: _202  and  _203
REMARK   85  A    between atoms: _203  and  _204
REMARK   86  A    between atoms: _213  and  _215
REMARK   87  A    between atoms: _215  and  _216
REMARK   88  A    between atoms: _215  and  _218
REMARK   89  A    between atoms: _221  and  _223
REMARK   90  A    between atoms: _223  and  _224
REMARK   91  A    between atoms: _223  and  _226
REMARK   92  A    between atoms: _229  and  _231
REMARK   93  A    between atoms: _231  and  _232
REMARK   94  A    between atoms: _231  and  _234
REMARK   95  A    between atoms: _234  and  _235
REMARK   96  A    between atoms: _235  and  _236
REMARK   97  A    between atoms: _238  and  _240
REMARK   98  A    between atoms: _240  and  _241
REMARK   99  A    between atoms: _244  and  _246
REMARK  100  A    between atoms: _246  and  _247
REMARK  101  A    between atoms: _246  and  _249
REMARK  102  A    between atoms: _249  and  _250
REMARK  103  A    between atoms: _252  and  _254
REMARK  104  A    between atoms: _254  and  _255
REMARK  105  A    between atoms: _258  and  _260
REMARK  106  A    between atoms: _260  and  _261
REMARK  107  A    between atoms: _260  and  _263
REMARK  108  A    between atoms: _263  and  _264
REMARK  109  A    between atoms: _264  and  _265
REMARK  110  A    between atoms: _270  and  _272
REMARK  111  A    between atoms: _272  and  _273
REMARK  112  A    between atoms: _272  and  _275
REMARK  113  A    between atoms: _278  and  _280
REMARK  114  A    between atoms: _280  and  _281
REMARK  115  A    between atoms: _280  and  _283
REMARK  116  A    between atoms: _283  and  _284
REMARK  117  A    between atoms: _284  and  _285
REMARK  118  A    between atoms: _285  and  _286
REMARK  119  A    between atoms: _286  and  _287
REMARK  120  A    between atoms: _291  and  _293
REMARK  121  A    between atoms: _293  and  _294
REMARK  122  A    between atoms: _293  and  _296
REMARK  123  A    between atoms: _296  and  _297
REMARK  124  A    between atoms: _299  and  _301
REMARK  125  A    between atoms: _301  and  _302
REMARK  126  A    between atoms: _305  and  _307
REMARK  127  A    between atoms: _307  and  _308
REMARK  128  A    between atoms: _307  and  _310
REMARK  129  A    between atoms: _310  and  _311
REMARK  130  A    between atoms: _314  and  _316
REMARK  131  A    between atoms: _316  and  _317
REMARK  132  A    between atoms: _316  and  _319
REMARK  133  A    between atoms: _319  and  _320
REMARK  134  A    between atoms: _320  and  _321
REMARK  135  A    between atoms: _321  and  _322
REMARK  136  A    between atoms: _331  and  _333
REMARK  137  A    between atoms: _333  and  _334
REMARK  138  A    between atoms: _333  and  _336
REMARK  139  A    between atoms: _336  and  _337
REMARK  140  A    between atoms: _340  and  _342
REMARK  141  A    between atoms: _342  and  _343
REMARK  142  A    between atoms: _342  and  _345
REMARK  143  A    between atoms: _345  and  _346
REMARK  144  A    between atoms: _351  and  _353
REMARK  145  A    between atoms: _353  and  _354
REMARK  146  A    between atoms: _353  and  _356
REMARK  147  A    between atoms: _356  and  _357
REMARK  148  A    between atoms: _360  and  _362
REMARK  149  A    between atoms: _362  and  _363
REMARK  150  A    between atoms: _362  and  _365
REMARK  151  A    between atoms: _365  and  _366
REMARK  152  A    between atoms: _369  and  _371
REMARK  153  A    between atoms: _371  and  _372
REMARK  154  A    between atoms: _371  and  _374
REMARK  155  A    between atoms: _374  and  _375
REMARK  156  A    between atoms: _377  and  _379
REMARK  157  A    between atoms: _379  and  _380
REMARK  158  A    between atoms: _379  and  _382
REMARK  159  A    between atoms: _382  and  _383
REMARK  160  A    between atoms: _383  and  _384
REMARK  161  A    between atoms: _384  and  _385
REMARK  162  A    between atoms: _394  and  _396
REMARK  163  A    between atoms: _396  and  _397
REMARK  164  A    between atoms: _401  and  _402
REMARK  165  A    between atoms: _407  and  _409
REMARK  166  A    between atoms: _409  and  _410
REMARK  167  A    between atoms: _409  and  _412
REMARK  168  A    between atoms: _412  and  _413
REMARK  169  A    between atoms: _413  and  _414
REMARK  170  A    between atoms: _416  and  _418
REMARK  171  A    between atoms: _418  and  _419
REMARK  172  A    between atoms: _418  and  _421
REMARK  173  A    between atoms: _421  and  _422
REMARK  174  A    between atoms: _425  and  _427
REMARK  175  A    between atoms: _427  and  _428
REMARK  176  A    between atoms: _427  and  _430
REMARK  177  A    between atoms: _430  and  _431
REMARK  178  A    between atoms: _434  and  _436
REMARK  179  A    between atoms: _436  and  _437
REMARK  180  A    between atoms: _436  and  _439
REMARK  181  A    between atoms: _439  and  _440
REMARK  182  A    between atoms: _440  and  _441
REMARK  183  A    between atoms: _445  and  _446
REMARK  184  A    between atoms: _451  and  _453
REMARK  185  A    between atoms: _453  and  _454
REMARK  186  A    between atoms: _453  and  _456
REMARK  187  A    between atoms: _456  and  _457
REMARK  188  A    between atoms: _457  and  _458
REMARK  189  A    between atoms: _461  and  _463
REMARK  190  A    between atoms: _463  and  _464
REMARK  191  A    between atoms: _463  and  _466
REMARK  192  A    between atoms: _466  and  _467
REMARK  193  A    between atoms: _470  and  _472
REMARK  194  A    between atoms: _472  and  _473
REMARK  195  A    between atoms: _472  and  _475
REMARK  196  A    between atoms: _478  and  _480
REMARK  197  A    between atoms: _480  and  _481
REMARK  198  A    between atoms: _480  and  _483
REMARK  199  A    between atoms: _483  and  _484
REMARK  200  A    between atoms: _484  and  _485
REMARK  201  A    between atoms: _485  and  _486
REMARK  202  A    between atoms: _486  and  _487
REMARK  203  A    between atoms: _491  and  _493
REMARK  204  A    between atoms: _493  and  _494
REMARK  205  A    between atoms: _493  and  _496
REMARK  206  A    between atoms: _496  and  _497
REMARK  207  A    between atoms: _497  and  _498
REMARK  208  A    between atoms: _501  and  _503
REMARK  209  A    between atoms: _503  and  _504
REMARK  210  A    between atoms: _503  and  _506
REMARK  211  A    between atoms: _506  and  _507
REMARK  212  A    between atoms: _509  and  _511
REMARK  213  A    between atoms: _511  and  _512
REMARK  214  A    between atoms: _511  and  _514
REMARK  215  A    between atoms: _514  and  _515
REMARK  216  A    between atoms: _515  and  _516
REMARK  217  A    between atoms: _516  and  _517
REMARK  218  A    between atoms: _526  and  _528
REMARK  219  A    between atoms: _528  and  _529
REMARK  220  A    between atoms: _528  and  _531
REMARK  221  A    between atoms: _531  and  _532
REMARK  222  A    between atoms: _535  and  _537
REMARK  223  A    between atoms: _537  and  _538
REMARK  224  A    between atoms: _537  and  _540
REMARK  225  A    between atoms: _540  and  _541
REMARK  226  A    between atoms: _546  and  _548
REMARK  227  A    between atoms: _548  and  _549
REMARK  228  A    between atoms: _548  and  _551
REMARK  229  A    between atoms: _551  and  _552
REMARK  230  A    between atoms: _552  and  _553
REMARK  231  A    between atoms: _553  and  _554
REMARK  232  A    between atoms: _563  and  _565
REMARK  233  A    between atoms: _565  and  _566
REMARK  234  A    between atoms: _565  and  _568
REMARK  235  A    between atoms: _568  and  _569
REMARK  236  A    between atoms: _572  and  _574
REMARK  237  A    between atoms: _574  and  _575
REMARK  238  A    between atoms: _574  and  _577
REMARK  239  A    between atoms: _577  and  _578
REMARK  240  A    between atoms: _581  and  _583
REMARK  241  A    between atoms: _583  and  _584
REMARK  242  A    between atoms: _583  and  _586
REMARK  243  A    between atoms: _586  and  _587
REMARK                            x       y       z     vdW  Elec       q    Type
REMARK                         _______ _______ _______ _____ _____    ______ ____
ROOT
ATOM      1  O   HOH     1    -129.240  28.468 123.524  0.00  0.00    +0.000 OA
ENDROOT
TORSDOF 0
REMARK  Name = ../refined-set-2016/2pqc/2pqc_pocket.pdb
REMARK  243 active torsions:
REMARK  status: ('A' for Active; 'I' for Inactive)
REMARK    1  A    between atoms: _1  and  _3
REMARK    2  A    between atoms: _3  and  _4
REMARK    3  A    between atoms: _3  and  _6
REMARK    4  A    between atoms: _6  and  _7
REMARK    5  A    between atoms: _10  and  _12
REMARK    6  A    between atoms: _12  and  _13
REMARK    7  A    between atoms: _12  and  _15
REMARK    8  A    between atoms: _15  and  _16
REMARK    9  A    between atoms: _16  and  _17
REMARK   10  A    between atoms: _17  and  _18
REMARK   11  A    between atoms: _18  and  _19
REMARK   12  A    between atoms: _23  and  _25
REMARK   13  A    between atoms: _25  and  _26
REMARK   14  A    between atoms: _25  and  _28
REMARK   15  A    between atoms: _28  and  _29
REMARK   16  A    between atoms: _31  and  _33
REMARK   17  A    between atoms: _33  and  _34
REMARK   18  A    between atoms: _33  and  _36
REMARK   19  A    between atoms: _36  and  _37
REMARK   20  A    between atoms: _40  and  _42
REMARK   21  A    between atoms: _42  and  _43
REMARK   22  A    between atoms: _42  and  _45
REMARK   23  A    between atoms: _45  and  _46
REMARK   24  A    between atoms: _48  and  _50
REMARK   25  A    between atoms: _50  and  _51
REMARK   26  A    between atoms: _50  and  _53
REMARK   27  A    between atoms: _53  and  _54
REMARK   28  A    between atoms: _59  and  _61
REMARK   29  A    between atoms: _61  and  _62
REMARK   30  A    between atoms: _61  and  _64
REMARK   31  A    between atoms: _64  and  _65
REMARK   32  A    between atoms: _65  and  _66
REMARK   33  A    between atoms: _66  and  _67
REMARK   34  A    between atoms: _76  and  _78
REMARK   35  A    between atoms: _78  and  _79
REMARK   36  A    between atoms: _78  and  _81
REMARK   37  A    between atoms: _81  and  _82
REMARK   38  A    between atoms: _85  and  _87
REMARK   39  A    between atoms: _87  and  _88
REMARK   40  A    between atoms: _87  and  _90
REMARK   41  A    between atoms: _90  and  _91
REMARK   42  A    between atoms: _96  and  _98
REMARK   43  A    between atoms: _98  and  _99
REMARK   44  A    between atoms: _102  and  _104
REMARK   45  A    between atoms: _104  and  _105
REMARK   46  A    between atoms: _108  and  _110
REMARK   47  A    between atoms: _110  and  _111
REMARK   48  A    between atoms: _110  and  _113
REMARK   49  A    between atoms: _113  and  _114
REMARK   50  A    between atoms: _117  and  _119
REMARK   51  A    between atoms: _119  and  _120
REMARK   52  A    between atoms: _122  and  _124
REMARK   53  A    between atoms: _124  and  _125
REMARK   54  A    between atoms: _124  and  _127
REMARK   55  A    between atoms: _129  and  _131
REMARK   56  A    between atoms: _131  and  _132
REMARK   57  A    between atoms: _131  and  _134
REMARK   58  A    between atoms: _134  and  _135
REMARK   59  A    between atoms: _135  and  _136
REMARK   60  A    between atoms: _136  and  _137
REMARK   61  A    between atoms: _146  and  _148
REMARK   62  A    between atoms: _148  and  _149
REMARK   63  A    between atoms: _148  and  _151
REMARK   64  A    between atoms: _151  and  _152
REMARK   65  A    between atoms: _155  and  _157
REMARK   66  A    between atoms: _157  and  _158
REMARK   67  A    between atoms: _157  and  _160
REMARK   68  A    between atoms: _160  and  _161
REMARK   69  A    between atoms: _163  and  _165
REMARK   70  A    between atoms: _165  and  _166
REMARK   71  A    between atoms: _165  and  _168
REMARK   72  A    between atoms: _168  and  _169
REMARK   73  A    between atoms: _172  and  _174
REMARK   74  A    between atoms: _174  and  _175
REMARK   75  A    between atoms: _174  and  _177
REMARK   76  A    between atoms: _177  and  _178
REMARK   77  A    between atoms: _178  and  _179
REMARK   78  A    between atoms: _179  and  _180
REMARK   79  A    between atoms: _190  and  _191
REMARK   80  A    between atoms: _196  and  _198
REMARK   81  A    between atoms: _198  and  _199
REMARK   82  A    between atoms: _198  and  _201
REMARK   83  A    between atoms: _201  and  _202
REMARK   84  A    between atoms: _202  and  _203
REMARK   85  A    between atoms: _203  and  _204
REMARK   86  A    between atoms: _213  and  _215
REMARK   87  A    between atoms: _215  and  _216
REMARK   88  A    between atoms: _215  and  _218
REMARK   89  A    between atoms: _221  and  _223
REMARK   90  A    between atoms: _223  and  _224
REMARK   91  A    between atoms: _223  and  _226
REMARK   92  A    between atoms: _229  and  _231
REMARK   93  A    between atoms: _231  and  _232
REMARK   94  A    between atoms: _231  and  _234
REMARK   95  A    between atoms: _234  and  _235
REMARK   96  A    between atoms: _235  and  _236
REMARK   97  A    between atoms: _238  and  _240
REMARK   98  A    between atoms: _240  and  _241
REMARK   99  A    between atoms: _244  and  _246
REMARK  100  A    between atoms: _246  and  _247
REMARK  101  A    between atoms: _246  and  _249
REMARK  102  A    between atoms: _249  and  _250
REMARK  103  A    between atoms: _252  and  _254
REMARK  104  A    between atoms: _254  and  _255
REMARK  105  A    between atoms: _258  and  _260
REMARK  106  A    between atoms: _260  and  _261
REMARK  107  A    between atoms: _260  and  _263
REMARK  108  A    between atoms: _263  and  _264
REMARK  109  A    between atoms: _264  and  _265
REMARK  110  A    between atoms: _270  and  _272
REMARK  111  A    between atoms: _272  and  _273
REMARK  112  A    between atoms: _272  and  _275
REMARK  113  A    between atoms: _278  and  _280
REMARK  114  A    between atoms: _280  and  _281
REMARK  115  A    between atoms: _280  and  _283
REMARK  116  A    between atoms: _283  and  _284
REMARK  117  A    between atoms: _284  and  _285
REMARK  118  A    between atoms: _285  and  _286
REMARK  119  A    between atoms: _286  and  _287
REMARK  120  A    between atoms: _291  and  _293
REMARK  121  A    between atoms: _293  and  _294
REMARK  122  A    between atoms: _293  and  _296
REMARK  123  A    between atoms: _296  and  _297
REMARK  124  A    between atoms: _299  and  _301
REMARK  125  A    between atoms: _301  and  _302
REMARK  126  A    between atoms: _305  and  _307
REMARK  127  A    between atoms: _307  and  _308
REMARK  128  A    between atoms: _307  and  _310
REMARK  129  A    between atoms: _310  and  _311
REMARK  130  A    between atoms: _314  and  _316
REMARK  131  A    between atoms: _316  and  _317
REMARK  132  A    between atoms: _316  and  _319
REMARK  133  A    between atoms: _319  and  _320
REMARK  134  A    between atoms: _320  and  _321
REMARK  135  A    between atoms: _321  and  _322
REMARK  136  A    between atoms: _331  and  _333
REMARK  137  A    between atoms: _333  and  _334
REMARK  138  A    between atoms: _333  and  _336
REMARK  139  A    between atoms: _336  and  _337
REMARK  140  A    between atoms: _340  and  _342
REMARK  141  A    between atoms: _342  and  _343
REMARK  142  A    between atoms: _342  and  _345
REMARK  143  A    between atoms: _345  and  _346
REMARK  144  A    between atoms: _351  and  _353
REMARK  145  A    between atoms: _353  and  _354
REMARK  146  A    between atoms: _353  and  _356
REMARK  147  A    between atoms: _356  and  _357
REMARK  148  A    between atoms: _360  and  _362
REMARK  149  A    between atoms: _362  and  _363
REMARK  150  A    between atoms: _362  and  _365
REMARK  151  A    between atoms: _365  and  _366
REMARK  152  A    between atoms: _369  and  _371
REMARK  153  A    between atoms: _371  and  _372
REMARK  154  A    between atoms: _371  and  _374
REMARK  155  A    between atoms: _374  and  _375
REMARK  156  A    between atoms: _377  and  _379
REMARK  157  A    between atoms: _379  and  _380
REMARK  158  A    between atoms: _379  and  _382
REMARK  159  A    between atoms: _382  and  _383
REMARK  160  A    between atoms: _383  and  _384
REMARK  161  A    between atoms: _384  and  _385
REMARK  162  A    between atoms: _394  and  _396
REMARK  163  A    between atoms: _396  and  _397
REMARK  164  A    between atoms: _401  and  _402
REMARK  165  A    between atoms: _407  and  _409
REMARK  166  A    between atoms: _409  and  _410
REMARK  167  A    between atoms: _409  and  _412
REMARK  168  A    between atoms: _412  and  _413
REMARK  169  A    between atoms: _413  and  _414
REMARK  170  A    between atoms: _416  and  _418
REMARK  171  A    between atoms: _418  and  _419
REMARK  172  A    between atoms: _418  and  _421
REMARK  173  A    between atoms: _421  and  _422
REMARK  174  A    between atoms: _425  and  _427
REMARK  175  A    between atoms: _427  and  _428
REMARK  176  A    between atoms: _427  and  _430
REMARK  177  A    between atoms: _430  and  _431
REMARK  178  A    between atoms: _434  and  _436
REMARK  179  A    between atoms: _436  and  _437
REMARK  180  A    between atoms: _436  and  _439
REMARK  181  A    between atoms: _439  and  _440
REMARK  182  A    between atoms: _440  and  _441
REMARK  183  A    between atoms: _445  and  _446
REMARK  184  A    between atoms: _451  and  _453
REMARK  185  A    between atoms: _453  and  _454
REMARK  186  A    between atoms: _453  and  _456
REMARK  187  A    between atoms: _456  and  _457
REMARK  188  A    between atoms: _457  and  _458
REMARK  189  A    between atoms: _461  and  _463
REMARK  190  A    between atoms: _463  and  _464
REMARK  191  A    between atoms: _463  and  _466
REMARK  192  A    between atoms: _466  and  _467
REMARK  193  A    between atoms: _470  and  _472
REMARK  194  A    between atoms: _472  and  _473
REMARK  195  A    between atoms: _472  and  _475
REMARK  196  A    between atoms: _478  and  _480
REMARK  197  A    between atoms: _480  and  _481
REMARK  198  A    between atoms: _480  and  _483
REMARK  199  A    between atoms: _483  and  _484
REMARK  200  A    between atoms: _484  and  _485
REMARK  201  A    between atoms: _485  and  _486
REMARK  202  A    between atoms: _486  and  _487
REMARK  203  A    between atoms: _491  and  _493
REMARK  204  A    between atoms: _493  and  _494
REMARK  205  A    between atoms: _493  and  _496
REMARK  206  A    between atoms: _496  and  _497
REMARK  207  A    between atoms: _497  and  _498
REMARK  208  A    between atoms: _501  and  _503
REMARK  209  A    between atoms: _503  and  _504
REMARK  210  A    between atoms: _503  and  _506
REMARK  211  A    between atoms: _506  and  _507
REMARK  212  A    between atoms: _509  and  _511
REMARK  213  A    between atoms: _511  and  _512
REMARK  214  A    between atoms: _511  and  _514
REMARK  215  A    between atoms: _514  and  _515
REMARK  216  A    between atoms: _515  and  _516
REMARK  217  A    between atoms: _516  and  _517
REMARK  218  A    between atoms: _526  and  _528
REMARK  219  A    between atoms: _528  and  _529
REMARK  220  A    between atoms: _528  and  _531
REMARK  221  A    between atoms: _531  and  _532
REMARK  222  A    between atoms: _535  and  _537
REMARK  223  A    between atoms: _537  and  _538
REMARK  224  A    between atoms: _537  and  _540
REMARK  225  A    between atoms: _540  and  _541
REMARK  226  A    between atoms: _546  and  _548
REMARK  227  A    between atoms: _548  and  _549
REMARK  228  A    between atoms: _548  and  _551
REMARK  229  A    between atoms: _551  and  _552
REMARK  230  A    between atoms: _552  and  _553
REMARK  231  A    between atoms: _553  and  _554
REMARK  232  A    between atoms: _563  and  _565
REMARK  233  A    between atoms: _565  and  _566
REMARK  234  A    between atoms: _565  and  _568
REMARK  235  A    between atoms: _568  and  _569
REMARK  236  A    between atoms: _572  and  _574
REMARK  237  A    between atoms: _574  and  _575
REMARK  238  A    between atoms: _574  and  _577
REMARK  239  A    between atoms: _577  and  _578
REMARK  240  A    between atoms: _581  and  _583
REMARK  241  A    between atoms: _583  and  _584
REMARK  242  A    between atoms: _583  and  _586
REMARK  243  A    between atoms: _586  and  _587
REMARK                            x       y       z     vdW  Elec       q    Type
REMARK                         _______ _______ _______ _____ _____    ______ ____
ROOT
ATOM      1  O   HOH     1    -132.217  34.939 128.558  0.00  0.00    +0.000 OA
ENDROOT
TORSDOF 0
REMARK  Name = ../refined-set-2016/2pqc/2pqc_pocket.pdb
REMARK  243 active torsions:
REMARK  status: ('A' for Active; 'I' for Inactive)
REMARK    1  A    between atoms: _1  and  _3
REMARK    2  A    between atoms: _3  and  _4
REMARK    3  A    between atoms: _3  and  _6
REMARK    4  A    between atoms: _6  and  _7
REMARK    5  A    between atoms: _10  and  _12
REMARK    6  A    between atoms: _12  and  _13
REMARK    7  A    between atoms: _12  and  _15
REMARK    8  A    between atoms: _15  and  _16
REMARK    9  A    between atoms: _16  and  _17
REMARK   10  A    between atoms: _17  and  _18
REMARK   11  A    between atoms: _18  and  _19
REMARK   12  A    between atoms: _23  and  _25
REMARK   13  A    between atoms: _25  and  _26
REMARK   14  A    between atoms: _25  and  _28
REMARK   15  A    between atoms: _28  and  _29
REMARK   16  A    between atoms: _31  and  _33
REMARK   17  A    between atoms: _33  and  _34
REMARK   18  A    between atoms: _33  and  _36
REMARK   19  A    between atoms: _36  and  _37
REMARK   20  A    between atoms: _40  and  _42
REMARK   21  A    between atoms: _42  and  _43
REMARK   22  A    between atoms: _42  and  _45
REMARK   23  A    between atoms: _45  and  _46
REMARK   24  A    between atoms: _48  and  _50
REMARK   25  A    between atoms: _50  and  _51
REMARK   26  A    between atoms: _50  and  _53
REMARK   27  A    between atoms: _53  and  _54
REMARK   28  A    between atoms: _59  and  _61
REMARK   29  A    between atoms: _61  and  _62
REMARK   30  A    between atoms: _61  and  _64
REMARK   31  A    between atoms: _64  and  _65
REMARK   32  A    between atoms: _65  and  _66
REMARK   33  A    between atoms: _66  and  _67
REMARK   34  A    between atoms: _76  and  _78
REMARK   35  A    between atoms: _78  and  _79
REMARK   36  A    between atoms: _78  and  _81
REMARK   37  A    between atoms: _81  and  _82
REMARK   38  A    between atoms: _85  and  _87
REMARK   39  A    between atoms: _87  and  _88
REMARK   40  A    between atoms: _87  and  _90
REMARK   41  A    between atoms: _90  and  _91
REMARK   42  A    between atoms: _96  and  _98
REMARK   43  A    between atoms: _98  and  _99
REMARK   44  A    between atoms: _102  and  _104
REMARK   45  A    between atoms: _104  and  _105
REMARK   46  A    between atoms: _108  and  _110
REMARK   47  A    between atoms: _110  and  _111
REMARK   48  A    between atoms: _110  and  _113
REMARK   49  A    between atoms: _113  and  _114
REMARK   50  A    between atoms: _117  and  _119
REMARK   51  A    between atoms: _119  and  _120
REMARK   52  A    between atoms: _122  and  _124
REMARK   53  A    between atoms: _124  and  _125
REMARK   54  A    between atoms: _124  and  _127
REMARK   55  A    between atoms: _129  and  _131
REMARK   56  A    between atoms: _131  and  _132
REMARK   57  A    between atoms: _131  and  _134
REMARK   58  A    between atoms: _134  and  _135
REMARK   59  A    between atoms: _135  and  _136
REMARK   60  A    between atoms: _136  and  _137
REMARK   61  A    between atoms: _146  and  _148
REMARK   62  A    between atoms: _148  and  _149
REMARK   63  A    between atoms: _148  and  _151
REMARK   64  A    between atoms: _151  and  _152
REMARK   65  A    between atoms: _155  and  _157
REMARK   66  A    between atoms: _157  and  _158
REMARK   67  A    between atoms: _157  and  _160
REMARK   68  A    between atoms: _160  and  _161
REMARK   69  A    between atoms: _163  and  _165
REMARK   70  A    between atoms: _165  and  _166
REMARK   71  A    between atoms: _165  and  _168
REMARK   72  A    between atoms: _168  and  _169
REMARK   73  A    between atoms: _172  and  _174
REMARK   74  A    between atoms: _174  and  _175
REMARK   75  A    between atoms: _174  and  _177
REMARK   76  A    between atoms: _177  and  _178
REMARK   77  A    between atoms: _178  and  _179
REMARK   78  A    between atoms: _179  and  _180
REMARK   79  A    between atoms: _190  and  _191
REMARK   80  A    between atoms: _196  and  _198
REMARK   81  A    between atoms: _198  and  _199
REMARK   82  A    between atoms: _198  and  _201
REMARK   83  A    between atoms: _201  and  _202
REMARK   84  A    between atoms: _202  and  _203
REMARK   85  A    between atoms: _203  and  _204
REMARK   86  A    between atoms: _213  and  _215
REMARK   87  A    between atoms: _215  and  _216
REMARK   88  A    between atoms: _215  and  _218
REMARK   89  A    between atoms: _221  and  _223
REMARK   90  A    between atoms: _223  and  _224
REMARK   91  A    between atoms: _223  and  _226
REMARK   92  A    between atoms: _229  and  _231
REMARK   93  A    between atoms: _231  and  _232
REMARK   94  A    between atoms: _231  and  _234
REMARK   95  A    between atoms: _234  and  _235
REMARK   96  A    between atoms: _235  and  _236
REMARK   97  A    between atoms: _238  and  _240
REMARK   98  A    between atoms: _240  and  _241
REMARK   99  A    between atoms: _244  and  _246
REMARK  100  A    between atoms: _246  and  _247
REMARK  101  A    between atoms: _246  and  _249
REMARK  102  A    between atoms: _249  and  _250
REMARK  103  A    between atoms: _252  and  _254
REMARK  104  A    between atoms: _254  and  _255
REMARK  105  A    between atoms: _258  and  _260
REMARK  106  A    between atoms: _260  and  _261
REMARK  107  A    between atoms: _260  and  _263
REMARK  108  A    between atoms: _263  and  _264
REMARK  109  A    between atoms: _264  and  _265
REMARK  110  A    between atoms: _270  and  _272
REMARK  111  A    between atoms: _272  and  _273
REMARK  112  A    between atoms: _272  and  _275
REMARK  113  A    between atoms: _278  and  _280
REMARK  114  A    between atoms: _280  and  _281
REMARK  115  A    between atoms: _280  and  _283
REMARK  116  A    between atoms: _283  and  _284
REMARK  117  A    between atoms: _284  and  _285
REMARK  118  A    between atoms: _285  and  _286
REMARK  119  A    between atoms: _286  and  _287
REMARK  120  A    between atoms: _291  and  _293
REMARK  121  A    between atoms: _293  and  _294
REMARK  122  A    between atoms: _293  and  _296
REMARK  123  A    between atoms: _296  and  _297
REMARK  124  A    between atoms: _299  and  _301
REMARK  125  A    between atoms: _301  and  _302
REMARK  126  A    between atoms: _305  and  _307
REMARK  127  A    between atoms: _307  and  _308
REMARK  128  A    between atoms: _307  and  _310
REMARK  129  A    between atoms: _310  and  _311
REMARK  130  A    between atoms: _314  and  _316
REMARK  131  A    between atoms: _316  and  _317
REMARK  132  A    between atoms: _316  and  _319
REMARK  133  A    between atoms: _319  and  _320
REMARK  134  A    between atoms: _320  and  _321
REMARK  135  A    between atoms: _321  and  _322
REMARK  136  A    between atoms: _331  and  _333
REMARK  137  A    between atoms: _333  and  _334
REMARK  138  A    between atoms: _333  and  _336
REMARK  139  A    between atoms: _336  and  _337
REMARK  140  A    between atoms: _340  and  _342
REMARK  141  A    between atoms: _342  and  _343
REMARK  142  A    between atoms: _342  and  _345
REMARK  143  A    between atoms: _345  and  _346
REMARK  144  A    between atoms: _351  and  _353
REMARK  145  A    between atoms: _353  and  _354
REMARK  146  A    between atoms: _353  and  _356
REMARK  147  A    between atoms: _356  and  _357
REMARK  148  A    between atoms: _360  and  _362
REMARK  149  A    between atoms: _362  and  _363
REMARK  150  A    between atoms: _362  and  _365
REMARK  151  A    between atoms: _365  and  _366
REMARK  152  A    between atoms: _369  and  _371
REMARK  153  A    between atoms: _371  and  _372
REMARK  154  A    between atoms: _371  and  _374
REMARK  155  A    between atoms: _374  and  _375
REMARK  156  A    between atoms: _377  and  _379
REMARK  157  A    between atoms: _379  and  _380
REMARK  158  A    between atoms: _379  and  _382
REMARK  159  A    between atoms: _382  and  _383
REMARK  160  A    between atoms: _383  and  _384
REMARK  161  A    between atoms: _384  and  _385
REMARK  162  A    between atoms: _394  and  _396
REMARK  163  A    between atoms: _396  and  _397
REMARK  164  A    between atoms: _401  and  _402
REMARK  165  A    between atoms: _407  and  _409
REMARK  166  A    between atoms: _409  and  _410
REMARK  167  A    between atoms: _409  and  _412
REMARK  168  A    between atoms: _412  and  _413
REMARK  169  A    between atoms: _413  and  _414
REMARK  170  A    between atoms: _416  and  _418
REMARK  171  A    between atoms: _418  and  _419
REMARK  172  A    between atoms: _418  and  _421
REMARK  173  A    between atoms: _421  and  _422
REMARK  174  A    between atoms: _425  and  _427
REMARK  175  A    between atoms: _427  and  _428
REMARK  176  A    between atoms: _427  and  _430
REMARK  177  A    between atoms: _430  and  _431
REMARK  178  A    between atoms: _434  and  _436
REMARK  179  A    between atoms: _436  and  _437
REMARK  180  A    between atoms: _436  and  _439
REMARK  181  A    between atoms: _439  and  _440
REMARK  182  A    between atoms: _440  and  _441
REMARK  183  A    between atoms: _445  and  _446
REMARK  184  A    between atoms: _451  and  _453
REMARK  185  A    between atoms: _453  and  _454
REMARK  186  A    between atoms: _453  and  _456
REMARK  187  A    between atoms: _456  and  _457
REMARK  188  A    between atoms: _457  and  _458
REMARK  189  A    between atoms: _461  and  _463
REMARK  190  A    between atoms: _463  and  _464
REMARK  191  A    between atoms: _463  and  _466
REMARK  192  A    between atoms: _466  and  _467
REMARK  193  A    between atoms: _470  and  _472
REMARK  194  A    between atoms: _472  and  _473
REMARK  195  A    between atoms: _472  and  _475
REMARK  196  A    between atoms: _478  and  _480
REMARK  197  A    between atoms: _480  and  _481
REMARK  198  A    between atoms: _480  and  _483
REMARK  199  A    between atoms: _483  and  _484
REMARK  200  A    between atoms: _484  and  _485
REMARK  201  A    between atoms: _485  and  _486
REMARK  202  A    between atoms: _486  and  _487
REMARK  203  A    between atoms: _491  and  _493
REMARK  204  A    between atoms: _493  and  _494
REMARK  205  A    between atoms: _493  and  _496
REMARK  206  A    between atoms: _496  and  _497
REMARK  207  A    between atoms: _497  and  _498
REMARK  208  A    between atoms: _501  and  _503
REMARK  209  A    between atoms: _503  and  _504
REMARK  210  A    between atoms: _503  and  _506
REMARK  211  A    between atoms: _506  and  _507
REMARK  212  A    between atoms: _509  and  _511
REMARK  213  A    between atoms: _511  and  _512
REMARK  214  A    between atoms: _511  and  _514
REMARK  215  A    between atoms: _514  and  _515
REMARK  216  A    between atoms: _515  and  _516
REMARK  217  A    between atoms: _516  and  _517
REMARK  218  A    between atoms: _526  and  _528
REMARK  219  A    between atoms: _528  and  _529
REMARK  220  A    between atoms: _528  and  _531
REMARK  221  A    between atoms: _531  and  _532
REMARK  222  A    between atoms: _535  and  _537
REMARK  223  A    between atoms: _537  and  _538
REMARK  224  A    between atoms: _537  and  _540
REMARK  225  A    between atoms: _540  and  _541
REMARK  226  A    between atoms: _546  and  _548
REMARK  227  A    between atoms: _548  and  _549
REMARK  228  A    between atoms: _548  and  _551
REMARK  229  A    between atoms: _551  and  _552
REMARK  230  A    between atoms: _552  and  _553
REMARK  231  A    between atoms: _553  and  _554
REMARK  232  A    between atoms: _563  and  _565
REMARK  233  A    between atoms: _565  and  _566
REMARK  234  A    between atoms: _565  and  _568
REMARK  235  A    between atoms: _568  and  _569
REMARK  236  A    between atoms: _572  and  _574
REMARK  237  A    between atoms: _574  and  _575
REMARK  238  A    between atoms: _574  and  _577
REMARK  239  A    between atoms: _577  and  _578
REMARK  240  A    between atoms: _581  and  _583
REMARK  241  A    between atoms: _583  and  _584
REMARK  242  A    between atoms: _583  and  _586
REMARK  243  A    between atoms: _586  and  _587
REMARK                            x       y       z     vdW  Elec       q    Type
REMARK                         _______ _______ _______ _____ _____    ______ ____
ROOT
ATOM      1  O   HOH     1    -131.095  33.276 130.492  0.00  0.00    +0.000 OA
ENDROOT
TORSDOF 0
REMARK  Name = ../refined-set-2016/2pqc/2pqc_pocket.pdb
REMARK  243 active torsions:
REMARK  status: ('A' for Active; 'I' for Inactive)
REMARK    1  A    between atoms: _1  and  _3
REMARK    2  A    between atoms: _3  and  _4
REMARK    3  A    between atoms: _3  and  _6
REMARK    4  A    between atoms: _6  and  _7
REMARK    5  A    between atoms: _10  and  _12
REMARK    6  A    between atoms: _12  and  _13
REMARK    7  A    between atoms: _12  and  _15
REMARK    8  A    between atoms: _15  and  _16
REMARK    9  A    between atoms: _16  and  _17
REMARK   10  A    between atoms: _17  and  _18
REMARK   11  A    between atoms: _18  and  _19
REMARK   12  A    between atoms: _23  and  _25
REMARK   13  A    between atoms: _25  and  _26
REMARK   14  A    between atoms: _25  and  _28
REMARK   15  A    between atoms: _28  and  _29
REMARK   16  A    between atoms: _31  and  _33
REMARK   17  A    between atoms: _33  and  _34
REMARK   18  A    between atoms: _33  and  _36
REMARK   19  A    between atoms: _36  and  _37
REMARK   20  A    between atoms: _40  and  _42
REMARK   21  A    between atoms: _42  and  _43
REMARK   22  A    between atoms: _42  and  _45
REMARK   23  A    between atoms: _45  and  _46
REMARK   24  A    between atoms: _48  and  _50
REMARK   25  A    between atoms: _50  and  _51
REMARK   26  A    between atoms: _50  and  _53
REMARK   27  A    between atoms: _53  and  _54
REMARK   28  A    between atoms: _59  and  _61
REMARK   29  A    between atoms: _61  and  _62
REMARK   30  A    between atoms: _61  and  _64
REMARK   31  A    between atoms: _64  and  _65
REMARK   32  A    between atoms: _65  and  _66
REMARK   33  A    between atoms: _66  and  _67
REMARK   34  A    between atoms: _76  and  _78
REMARK   35  A    between atoms: _78  and  _79
REMARK   36  A    between atoms: _78  and  _81
REMARK   37  A    between atoms: _81  and  _82
REMARK   38  A    between atoms: _85  and  _87
REMARK   39  A    between atoms: _87  and  _88
REMARK   40  A    between atoms: _87  and  _90
REMARK   41  A    between atoms: _90  and  _91
REMARK   42  A    between atoms: _96  and  _98
REMARK   43  A    between atoms: _98  and  _99
REMARK   44  A    between atoms: _102  and  _104
REMARK   45  A    between atoms: _104  and  _105
REMARK   46  A    between atoms: _108  and  _110
REMARK   47  A    between atoms: _110  and  _111
REMARK   48  A    between atoms: _110  and  _113
REMARK   49  A    between atoms: _113  and  _114
REMARK   50  A    between atoms: _117  and  _119
REMARK   51  A    between atoms: _119  and  _120
REMARK   52  A    between atoms: _122  and  _124
REMARK   53  A    between atoms: _124  and  _125
REMARK   54  A    between atoms: _124  and  _127
REMARK   55  A    between atoms: _129  and  _131
REMARK   56  A    between atoms: _131  and  _132
REMARK   57  A    between atoms: _131  and  _134
REMARK   58  A    between atoms: _134  and  _135
REMARK   59  A    between atoms: _135  and  _136
REMARK   60  A    between atoms: _136  and  _137
REMARK   61  A    between atoms: _146  and  _148
REMARK   62  A    between atoms: _148  and  _149
REMARK   63  A    between atoms: _148  and  _151
REMARK   64  A    between atoms: _151  and  _152
REMARK   65  A    between atoms: _155  and  _157
REMARK   66  A    between atoms: _157  and  _158
REMARK   67  A    between atoms: _157  and  _160
REMARK   68  A    between atoms: _160  and  _161
REMARK   69  A    between atoms: _163  and  _165
REMARK   70  A    between atoms: _165  and  _166
REMARK   71  A    between atoms: _165  and  _168
REMARK   72  A    between atoms: _168  and  _169
REMARK   73  A    between atoms: _172  and  _174
REMARK   74  A    between atoms: _174  and  _175
REMARK   75  A    between atoms: _174  and  _177
REMARK   76  A    between atoms: _177  and  _178
REMARK   77  A    between atoms: _178  and  _179
REMARK   78  A    between atoms: _179  and  _180
REMARK   79  A    between atoms: _190  and  _191
REMARK   80  A    between atoms: _196  and  _198
REMARK   81  A    between atoms: _198  and  _199
REMARK   82  A    between atoms: _198  and  _201
REMARK   83  A    between atoms: _201  and  _202
REMARK   84  A    between atoms: _202  and  _203
REMARK   85  A    between atoms: _203  and  _204
REMARK   86  A    between atoms: _213  and  _215
REMARK   87  A    between atoms: _215  and  _216
REMARK   88  A    between atoms: _215  and  _218
REMARK   89  A    between atoms: _221  and  _223
REMARK   90  A    between atoms: _223  and  _224
REMARK   91  A    between atoms: _223  and  _226
REMARK   92  A    between atoms: _229  and  _231
REMARK   93  A    between atoms: _231  and  _232
REMARK   94  A    between atoms: _231  and  _234
REMARK   95  A    between atoms: _234  and  _235
REMARK   96  A    between atoms: _235  and  _236
REMARK   97  A    between atoms: _238  and  _240
REMARK   98  A    between atoms: _240  and  _241
REMARK   99  A    between atoms: _244  and  _246
REMARK  100  A    between atoms: _246  and  _247
REMARK  101  A    between atoms: _246  and  _249
REMARK  102  A    between atoms: _249  and  _250
REMARK  103  A    between atoms: _252  and  _254
REMARK  104  A    between atoms: _254  and  _255
REMARK  105  A    between atoms: _258  and  _260
REMARK  106  A    between atoms: _260  and  _261
REMARK  107  A    between atoms: _260  and  _263
REMARK  108  A    between atoms: _263  and  _264
REMARK  109  A    between atoms: _264  and  _265
REMARK  110  A    between atoms: _270  and  _272
REMARK  111  A    between atoms: _272  and  _273
REMARK  112  A    between atoms: _272  and  _275
REMARK  113  A    between atoms: _278  and  _280
REMARK  114  A    between atoms: _280  and  _281
REMARK  115  A    between atoms: _280  and  _283
REMARK  116  A    between atoms: _283  and  _284
REMARK  117  A    between atoms: _284  and  _285
REMARK  118  A    between atoms: _285  and  _286
REMARK  119  A    between atoms: _286  and  _287
REMARK  120  A    between atoms: _291  and  _293
REMARK  121  A    between atoms: _293  and  _294
REMARK  122  A    between atoms: _293  and  _296
REMARK  123  A    between atoms: _296  and  _297
REMARK  124  A    between atoms: _299  and  _301
REMARK  125  A    between atoms: _301  and  _302
REMARK  126  A    between atoms: _305  and  _307
REMARK  127  A    between atoms: _307  and  _308
REMARK  128  A    between atoms: _307  and  _310
REMARK  129  A    between atoms: _310  and  _311
REMARK  130  A    between atoms: _314  and  _316
REMARK  131  A    between atoms: _316  and  _317
REMARK  132  A    between atoms: _316  and  _319
REMARK  133  A    between atoms: _319  and  _320
REMARK  134  A    between atoms: _320  and  _321
REMARK  135  A    between atoms: _321  and  _322
REMARK  136  A    between atoms: _331  and  _333
REMARK  137  A    between atoms: _333  and  _334
REMARK  138  A    between atoms: _333  and  _336
REMARK  139  A    between atoms: _336  and  _337
REMARK  140  A    between atoms: _340  and  _342
REMARK  141  A    between atoms: _342  and  _343
REMARK  142  A    between atoms: _342  and  _345
REMARK  143  A    between atoms: _345  and  _346
REMARK  144  A    between atoms: _351  and  _353
REMARK  145  A    between atoms: _353  and  _354
REMARK  146  A    between atoms: _353  and  _356
REMARK  147  A    between atoms: _356  and  _357
REMARK  148  A    between atoms: _360  and  _362
REMARK  149  A    between atoms: _362  and  _363
REMARK  150  A    between atoms: _362  and  _365
REMARK  151  A    between atoms: _365  and  _366
REMARK  152  A    between atoms: _369  and  _371
REMARK  153  A    between atoms: _371  and  _372
REMARK  154  A    between atoms: _371  and  _374
REMARK  155  A    between atoms: _374  and  _375
REMARK  156  A    between atoms: _377  and  _379
REMARK  157  A    between atoms: _379  and  _380
REMARK  158  A    between atoms: _379  and  _382
REMARK  159  A    between atoms: _382  and  _383
REMARK  160  A    between atoms: _383  and  _384
REMARK  161  A    between atoms: _384  and  _385
REMARK  162  A    between atoms: _394  and  _396
REMARK  163  A    between atoms: _396  and  _397
REMARK  164  A    between atoms: _401  and  _402
REMARK  165  A    between atoms: _407  and  _409
REMARK  166  A    between atoms: _409  and  _410
REMARK  167  A    between atoms: _409  and  _412
REMARK  168  A    between atoms: _412  and  _413
REMARK  169  A    between atoms: _413  and  _414
REMARK  170  A    between atoms: _416  and  _418
REMARK  171  A    between atoms: _418  and  _419
REMARK  172  A    between atoms: _418  and  _421
REMARK  173  A    between atoms: _421  and  _422
REMARK  174  A    between atoms: _425  and  _427
REMARK  175  A    between atoms: _427  and  _428
REMARK  176  A    between atoms: _427  and  _430
REMARK  177  A    between atoms: _430  and  _431
REMARK  178  A    between atoms: _434  and  _436
REMARK  179  A    between atoms: _436  and  _437
REMARK  180  A    between atoms: _436  and  _439
REMARK  181  A    between atoms: _439  and  _440
REMARK  182  A    between atoms: _440  and  _441
REMARK  183  A    between atoms: _445  and  _446
REMARK  184  A    between atoms: _451  and  _453
REMARK  185  A    between atoms: _453  and  _454
REMARK  186  A    between atoms: _453  and  _456
REMARK  187  A    between atoms: _456  and  _457
REMARK  188  A    between atoms: _457  and  _458
REMARK  189  A    between atoms: _461  and  _463
REMARK  190  A    between atoms: _463  and  _464
REMARK  191  A    between atoms: _463  and  _466
REMARK  192  A    between atoms: _466  and  _467
REMARK  193  A    between atoms: _470  and  _472
REMARK  194  A    between atoms: _472  and  _473
REMARK  195  A    between atoms: _472  and  _475
REMARK  196  A    between atoms: _478  and  _480
REMARK  197  A    between atoms: _480  and  _481
REMARK  198  A    between atoms: _480  and  _483
REMARK  199  A    between atoms: _483  and  _484
REMARK  200  A    between atoms: _484  and  _485
REMARK  201  A    between atoms: _485  and  _486
REMARK  202  A    between atoms: _486  and  _487
REMARK  203  A    between atoms: _491  and  _493
REMARK  204  A    between atoms: _493  and  _494
REMARK  205  A    between atoms: _493  and  _496
REMARK  206  A    between atoms: _496  and  _497
REMARK  207  A    between atoms: _497  and  _498
REMARK  208  A    between atoms: _501  and  _503
REMARK  209  A    between atoms: _503  and  _504
REMARK  210  A    between atoms: _503  and  _506
REMARK  211  A    between atoms: _506  and  _507
REMARK  212  A    between atoms: _509  and  _511
REMARK  213  A    between atoms: _511  and  _512
REMARK  214  A    between atoms: _511  and  _514
REMARK  215  A    between atoms: _514  and  _515
REMARK  216  A    between atoms: _515  and  _516
REMARK  217  A    between atoms: _516  and  _517
REMARK  218  A    between atoms: _526  and  _528
REMARK  219  A    between atoms: _528  and  _529
REMARK  220  A    between atoms: _528  and  _531
REMARK  221  A    between atoms: _531  and  _532
REMARK  222  A    between atoms: _535  and  _537
REMARK  223  A    between atoms: _537  and  _538
REMARK  224  A    between atoms: _537  and  _540
REMARK  225  A    between atoms: _540  and  _541
REMARK  226  A    between atoms: _546  and  _548
REMARK  227  A    between atoms: _548  and  _549
REMARK  228  A    between atoms: _548  and  _551
REMARK  229  A    between atoms: _551  and  _552
REMARK  230  A    between atoms: _552  and  _553
REMARK  231  A    between atoms: _553  and  _554
REMARK  232  A    between atoms: _563  and  _565
REMARK  233  A    between atoms: _565  and  _566
REMARK  234  A    between atoms: _565  and  _568
REMARK  235  A    between atoms: _568  and  _569
REMARK  236  A    between atoms: _572  and  _574
REMARK  237  A    between atoms: _574  and  _575
REMARK  238  A    between atoms: _574  and  _577
REMARK  239  A    between atoms: _577  and  _578
REMARK  240  A    between atoms: _581  and  _583
REMARK  241  A    between atoms: _583  and  _584
REMARK  242  A    between atoms: _583  and  _586
REMARK  243  A    between atoms: _586  and  _587
REMARK                            x       y       z     vdW  Elec       q    Type
REMARK                         _______ _______ _______ _____ _____    ______ ____
ROOT
ATOM      1  O   HOH     1    -132.098  25.908 127.853  0.00  0.00    +0.000 OA
ENDROOT
TORSDOF 0
REMARK  Name = ../refined-set-2016/2pqc/2pqc_pocket.pdb
REMARK  243 active torsions:
REMARK  status: ('A' for Active; 'I' for Inactive)
REMARK    1  A    between atoms: _1  and  _3
REMARK    2  A    between atoms: _3  and  _4
REMARK    3  A    between atoms: _3  and  _6
REMARK    4  A    between atoms: _6  and  _7
REMARK    5  A    between atoms: _10  and  _12
REMARK    6  A    between atoms: _12  and  _13
REMARK    7  A    between atoms: _12  and  _15
REMARK    8  A    between atoms: _15  and  _16
REMARK    9  A    between atoms: _16  and  _17
REMARK   10  A    between atoms: _17  and  _18
REMARK   11  A    between atoms: _18  and  _19
REMARK   12  A    between atoms: _23  and  _25
REMARK   13  A    between atoms: _25  and  _26
REMARK   14  A    between atoms: _25  and  _28
REMARK   15  A    between atoms: _28  and  _29
REMARK   16  A    between atoms: _31  and  _33
REMARK   17  A    between atoms: _33  and  _34
REMARK   18  A    between atoms: _33  and  _36
REMARK   19  A    between atoms: _36  and  _37
REMARK   20  A    between atoms: _40  and  _42
REMARK   21  A    between atoms: _42  and  _43
REMARK   22  A    between atoms: _42  and  _45
REMARK   23  A    between atoms: _45  and  _46
REMARK   24  A    between atoms: _48  and  _50
REMARK   25  A    between atoms: _50  and  _51
REMARK   26  A    between atoms: _50  and  _53
REMARK   27  A    between atoms: _53  and  _54
REMARK   28  A    between atoms: _59  and  _61
REMARK   29  A    between atoms: _61  and  _62
REMARK   30  A    between atoms: _61  and  _64
REMARK   31  A    between atoms: _64  and  _65
REMARK   32  A    between atoms: _65  and  _66
REMARK   33  A    between atoms: _66  and  _67
REMARK   34  A    between atoms: _76  and  _78
REMARK   35  A    between atoms: _78  and  _79
REMARK   36  A    between atoms: _78  and  _81
REMARK   37  A    between atoms: _81  and  _82
REMARK   38  A    between atoms: _85  and  _87
REMARK   39  A    between atoms: _87  and  _88
REMARK   40  A    between atoms: _87  and  _90
REMARK   41  A    between atoms: _90  and  _91
REMARK   42  A    between atoms: _96  and  _98
REMARK   43  A    between atoms: _98  and  _99
REMARK   44  A    between atoms: _102  and  _104
REMARK   45  A    between atoms: _104  and  _105
REMARK   46  A    between atoms: _108  and  _110
REMARK   47  A    between atoms: _110  and  _111
REMARK   48  A    between atoms: _110  and  _113
REMARK   49  A    between atoms: _113  and  _114
REMARK   50  A    between atoms: _117  and  _119
REMARK   51  A    between atoms: _119  and  _120
REMARK   52  A    between atoms: _122  and  _124
REMARK   53  A    between atoms: _124  and  _125
REMARK   54  A    between atoms: _124  and  _127
REMARK   55  A    between atoms: _129  and  _131
REMARK   56  A    between atoms: _131  and  _132
REMARK   57  A    between atoms: _131  and  _134
REMARK   58  A    between atoms: _134  and  _135
REMARK   59  A    between atoms: _135  and  _136
REMARK   60  A    between atoms: _136  and  _137
REMARK   61  A    between atoms: _146  and  _148
REMARK   62  A    between atoms: _148  and  _149
REMARK   63  A    between atoms: _148  and  _151
REMARK   64  A    between atoms: _151  and  _152
REMARK   65  A    between atoms: _155  and  _157
REMARK   66  A    between atoms: _157  and  _158
REMARK   67  A    between atoms: _157  and  _160
REMARK   68  A    between atoms: _160  and  _161
REMARK   69  A    between atoms: _163  and  _165
REMARK   70  A    between atoms: _165  and  _166
REMARK   71  A    between atoms: _165  and  _168
REMARK   72  A    between atoms: _168  and  _169
REMARK   73  A    between atoms: _172  and  _174
REMARK   74  A    between atoms: _174  and  _175
REMARK   75  A    between atoms: _174  and  _177
REMARK   76  A    between atoms: _177  and  _178
REMARK   77  A    between atoms: _178  and  _179
REMARK   78  A    between atoms: _179  and  _180
REMARK   79  A    between atoms: _190  and  _191
REMARK   80  A    between atoms: _196  and  _198
REMARK   81  A    between atoms: _198  and  _199
REMARK   82  A    between atoms: _198  and  _201
REMARK   83  A    between atoms: _201  and  _202
REMARK   84  A    between atoms: _202  and  _203
REMARK   85  A    between atoms: _203  and  _204
REMARK   86  A    between atoms: _213  and  _215
REMARK   87  A    between atoms: _215  and  _216
REMARK   88  A    between atoms: _215  and  _218
REMARK   89  A    between atoms: _221  and  _223
REMARK   90  A    between atoms: _223  and  _224
REMARK   91  A    between atoms: _223  and  _226
REMARK   92  A    between atoms: _229  and  _231
REMARK   93  A    between atoms: _231  and  _232
REMARK   94  A    between atoms: _231  and  _234
REMARK   95  A    between atoms: _234  and  _235
REMARK   96  A    between atoms: _235  and  _236
REMARK   97  A    between atoms: _238  and  _240
REMARK   98  A    between atoms: _240  and  _241
REMARK   99  A    between atoms: _244  and  _246
REMARK  100  A    between atoms: _246  and  _247
REMARK  101  A    between atoms: _246  and  _249
REMARK  102  A    between atoms: _249  and  _250
REMARK  103  A    between atoms: _252  and  _254
REMARK  104  A    between atoms: _254  and  _255
REMARK  105  A    between atoms: _258  and  _260
REMARK  106  A    between atoms: _260  and  _261
REMARK  107  A    between atoms: _260  and  _263
REMARK  108  A    between atoms: _263  and  _264
REMARK  109  A    between atoms: _264  and  _265
REMARK  110  A    between atoms: _270  and  _272
REMARK  111  A    between atoms: _272  and  _273
REMARK  112  A    between atoms: _272  and  _275
REMARK  113  A    between atoms: _278  and  _280
REMARK  114  A    between atoms: _280  and  _281
REMARK  115  A    between atoms: _280  and  _283
REMARK  116  A    between atoms: _283  and  _284
REMARK  117  A    between atoms: _284  and  _285
REMARK  118  A    between atoms: _285  and  _286
REMARK  119  A    between atoms: _286  and  _287
REMARK  120  A    between atoms: _291  and  _293
REMARK  121  A    between atoms: _293  and  _294
REMARK  122  A    between atoms: _293  and  _296
REMARK  123  A    between atoms: _296  and  _297
REMARK  124  A    between atoms: _299  and  _301
REMARK  125  A    between atoms: _301  and  _302
REMARK  126  A    between atoms: _305  and  _307
REMARK  127  A    between atoms: _307  and  _308
REMARK  128  A    between atoms: _307  and  _310
REMARK  129  A    between atoms: _310  and  _311
REMARK  130  A    between atoms: _314  and  _316
REMARK  131  A    between atoms: _316  and  _317
REMARK  132  A    between atoms: _316  and  _319
REMARK  133  A    between atoms: _319  and  _320
REMARK  134  A    between atoms: _320  and  _321
REMARK  135  A    between atoms: _321  and  _322
REMARK  136  A    between atoms: _331  and  _333
REMARK  137  A    between atoms: _333  and  _334
REMARK  138  A    between atoms: _333  and  _336
REMARK  139  A    between atoms: _336  and  _337
REMARK  140  A    between atoms: _340  and  _342
REMARK  141  A    between atoms: _342  and  _343
REMARK  142  A    between atoms: _342  and  _345
REMARK  143  A    between atoms: _345  and  _346
REMARK  144  A    between atoms: _351  and  _353
REMARK  145  A    between atoms: _353  and  _354
REMARK  146  A    between atoms: _353  and  _356
REMARK  147  A    between atoms: _356  and  _357
REMARK  148  A    between atoms: _360  and  _362
REMARK  149  A    between atoms: _362  and  _363
REMARK  150  A    between atoms: _362  and  _365
REMARK  151  A    between atoms: _365  and  _366
REMARK  152  A    between atoms: _369  and  _371
REMARK  153  A    between atoms: _371  and  _372
REMARK  154  A    between atoms: _371  and  _374
REMARK  155  A    between atoms: _374  and  _375
REMARK  156  A    between atoms: _377  and  _379
REMARK  157  A    between atoms: _379  and  _380
REMARK  158  A    between atoms: _379  and  _382
REMARK  159  A    between atoms: _382  and  _383
REMARK  160  A    between atoms: _383  and  _384
REMARK  161  A    between atoms: _384  and  _385
REMARK  162  A    between atoms: _394  and  _396
REMARK  163  A    between atoms: _396  and  _397
REMARK  164  A    between atoms: _401  and  _402
REMARK  165  A    between atoms: _407  and  _409
REMARK  166  A    between atoms: _409  and  _410
REMARK  167  A    between atoms: _409  and  _412
REMARK  168  A    between atoms: _412  and  _413
REMARK  169  A    between atoms: _413  and  _414
REMARK  170  A    between atoms: _416  and  _418
REMARK  171  A    between atoms: _418  and  _419
REMARK  172  A    between atoms: _418  and  _421
REMARK  173  A    between atoms: _421  and  _422
REMARK  174  A    between atoms: _425  and  _427
REMARK  175  A    between atoms: _427  and  _428
REMARK  176  A    between atoms: _427  and  _430
REMARK  177  A    between atoms: _430  and  _431
REMARK  178  A    between atoms: _434  and  _436
REMARK  179  A    between atoms: _436  and  _437
REMARK  180  A    between atoms: _436  and  _439
REMARK  181  A    between atoms: _439  and  _440
REMARK  182  A    between atoms: _440  and  _441
REMARK  183  A    between atoms: _445  and  _446
REMARK  184  A    between atoms: _451  and  _453
REMARK  185  A    between atoms: _453  and  _454
REMARK  186  A    between atoms: _453  and  _456
REMARK  187  A    between atoms: _456  and  _457
REMARK  188  A    between atoms: _457  and  _458
REMARK  189  A    between atoms: _461  and  _463
REMARK  190  A    between atoms: _463  and  _464
REMARK  191  A    between atoms: _463  and  _466
REMARK  192  A    between atoms: _466  and  _467
REMARK  193  A    between atoms: _470  and  _472
REMARK  194  A    between atoms: _472  and  _473
REMARK  195  A    between atoms: _472  and  _475
REMARK  196  A    between atoms: _478  and  _480
REMARK  197  A    between atoms: _480  and  _481
REMARK  198  A    between atoms: _480  and  _483
REMARK  199  A    between atoms: _483  and  _484
REMARK  200  A    between atoms: _484  and  _485
REMARK  201  A    between atoms: _485  and  _486
REMARK  202  A    between atoms: _486  and  _487
REMARK  203  A    between atoms: _491  and  _493
REMARK  204  A    between atoms: _493  and  _494
REMARK  205  A    between atoms: _493  and  _496
REMARK  206  A    between atoms: _496  and  _497
REMARK  207  A    between atoms: _497  and  _498
REMARK  208  A    between atoms: _501  and  _503
REMARK  209  A    between atoms: _503  and  _504
REMARK  210  A    between atoms: _503  and  _506
REMARK  211  A    between atoms: _506  and  _507
REMARK  212  A    between atoms: _509  and  _511
REMARK  213  A    between atoms: _511  and  _512
REMARK  214  A    between atoms: _511  and  _514
REMARK  215  A    between atoms: _514  and  _515
REMARK  216  A    between atoms: _515  and  _516
REMARK  217  A    between atoms: _516  and  _517
REMARK  218  A    between atoms: _526  and  _528
REMARK  219  A    between atoms: _528  and  _529
REMARK  220  A    between atoms: _528  and  _531
REMARK  221  A    between atoms: _531  and  _532
REMARK  222  A    between atoms: _535  and  _537
REMARK  223  A    between atoms: _537  and  _538
REMARK  224  A    between atoms: _537  and  _540
REMARK  225  A    between atoms: _540  and  _541
REMARK  226  A    between atoms: _546  and  _548
REMARK  227  A    between atoms: _548  and  _549
REMARK  228  A    between atoms: _548  and  _551
REMARK  229  A    between atoms: _551  and  _552
REMARK  230  A    between atoms: _552  and  _553
REMARK  231  A    between atoms: _553  and  _554
REMARK  232  A    between atoms: _563  and  _565
REMARK  233  A    between atoms: _565  and  _566
REMARK  234  A    between atoms: _565  and  _568
REMARK  235  A    between atoms: _568  and  _569
REMARK  236  A    between atoms: _572  and  _574
REMARK  237  A    between atoms: _574  and  _575
REMARK  238  A    between atoms: _574  and  _577
REMARK  239  A    between atoms: _577  and  _578
REMARK  240  A    between atoms: _581  and  _583
REMARK  241  A    between atoms: _583  and  _584
REMARK  242  A    between atoms: _583  and  _586
REMARK  243  A    between atoms: _586  and  _587
REMARK                            x       y       z     vdW  Elec       q    Type
REMARK                         _______ _______ _______ _____ _____    ______ ____
ROOT
ATOM      1  O   HOH     1    -135.408  26.496 130.569  0.00  0.00    +0.000 OA
ENDROOT
TORSDOF 0
