REMARK  Name = ../refined-set-2016/3cr5/3cr5_pocket.pdb
REMARK  92 active torsions:
REMARK  status: ('A' for Active; 'I' for Inactive)
REMARK    1  A    between atoms: _1  and  _3
REMARK    2  A    between atoms: _3  and  _4
REMARK    3  A    between atoms: _3  and  _6
REMARK    4  A    between atoms: _6  and  _7
REMARK    5  A    between atoms: _12  and  _14
REMARK    6  A    between atoms: _14  and  _15
REMARK    7  A    between atoms: _14  and  _17
REMARK    8  A    between atoms: _17  and  _18
REMARK    9  A    between atoms: _24  and  _26
REMARK   10  A    between atoms: _26  and  _27
REMARK   11  A    between atoms: _26  and  _29
REMARK   12  A    between atoms: _29  and  _30
REMARK   13  A    between atoms: _33  and  _35
REMARK   14  A    between atoms: _35  and  _36
REMARK   15  A    between atoms: _35  and  _38
REMARK   16  A    between atoms: _38  and  _39
REMARK   17  A    between atoms: _42  and  _44
REMARK   18  A    between atoms: _44  and  _45
REMARK   19  A    between atoms: _44  and  _47
REMARK   20  A    between atoms: _47  and  _48
REMARK   21  A    between atoms: _51  and  _53
REMARK   22  A    between atoms: _53  and  _54
REMARK   23  A    between atoms: _57  and  _59
REMARK   24  A    between atoms: _59  and  _60
REMARK   25  A    between atoms: _59  and  _62
REMARK   26  A    between atoms: _64  and  _66
REMARK   27  A    between atoms: _77  and  _80
REMARK   28  A    between atoms: _80  and  _81
REMARK   29  A    between atoms: _81  and  _82
REMARK   30  A    between atoms: _87  and  _90
REMARK   31  A    between atoms: _90  and  _91
REMARK   32  A    between atoms: _99  and  _102
REMARK   33  A    between atoms: _102  and  _103
REMARK   34  A    between atoms: _111  and  _112
REMARK   35  A    between atoms: _119  and  _123
REMARK   36  A    between atoms: _123  and  _124
REMARK   37  A    between atoms: _123  and  _126
REMARK   38  A    between atoms: _126  and  _127
REMARK   39  A    between atoms: _127  and  _128
REMARK   40  A    between atoms: _130  and  _132
REMARK   41  A    between atoms: _132  and  _133
REMARK   42  A    between atoms: _132  and  _135
REMARK   43  A    between atoms: _135  and  _136
REMARK   44  A    between atoms: _136  and  _137
REMARK   45  A    between atoms: _140  and  _142
REMARK   46  A    between atoms: _142  and  _143
REMARK   47  A    between atoms: _142  and  _145
REMARK   48  A    between atoms: _145  and  _146
REMARK   49  A    between atoms: _146  and  _147
REMARK   50  A    between atoms: _147  and  _148
REMARK   51  A    between atoms: _148  and  _149
REMARK   52  A    between atoms: _153  and  _155
REMARK   53  A    between atoms: _155  and  _156
REMARK   54  A    between atoms: _155  and  _158
REMARK   55  A    between atoms: _161  and  _163
REMARK   56  A    between atoms: _163  and  _164
REMARK   57  A    between atoms: _163  and  _166
REMARK   58  A    between atoms: _169  and  _171
REMARK   59  A    between atoms: _171  and  _172
REMARK   60  A    between atoms: _175  and  _177
REMARK   61  A    between atoms: _177  and  _178
REMARK   62  A    between atoms: _177  and  _180
REMARK   63  A    between atoms: _180  and  _181
REMARK   64  A    between atoms: _184  and  _186
REMARK   65  A    between atoms: _186  and  _187
REMARK   66  A    between atoms: _186  and  _189
REMARK   67  A    between atoms: _189  and  _190
REMARK   68  A    between atoms: _193  and  _195
REMARK   69  A    between atoms: _195  and  _196
REMARK   70  A    between atoms: _195  and  _198
REMARK   71  A    between atoms: _198  and  _199
REMARK   72  A    between atoms: _202  and  _204
REMARK   73  A    between atoms: _204  and  _205
REMARK   74  A    between atoms: _204  and  _207
REMARK   75  A    between atoms: _210  and  _212
REMARK   76  A    between atoms: _212  and  _213
REMARK   77  A    between atoms: _212  and  _215
REMARK   78  A    between atoms: _215  and  _216
REMARK   79  A    between atoms: _222  and  _224
REMARK   80  A    between atoms: _224  and  _225
REMARK   81  A    between atoms: _224  and  _227
REMARK   82  A    between atoms: _227  and  _228
REMARK   83  A    between atoms: _232  and  ZN_257
REMARK   84  A    between atoms: _233  and  _235
REMARK   85  A    between atoms: _235  and  _236
REMARK   86  A    between atoms: _235  and  _238
REMARK   87  A    between atoms: _238  and  _239
REMARK   88  A    between atoms: _239  and  _240
REMARK   89  A    between atoms: _245  and  _247
REMARK   90  A    between atoms: _247  and  _248
REMARK   91  A    between atoms: _247  and  _250
REMARK   92  A    between atoms: _250  and  _251
REMARK                            x       y       z     vdW  Elec       q    Type
REMARK                         _______ _______ _______ _____ _____    ______ ____
ROOT
ATOM      1  C   HIS A   1      10.407   7.647  20.782  0.00  0.00    +0.239 C 
ATOM      2  O   HIS A   1      10.554   7.530  22.004  0.00  0.00    -0.274 OA
ATOM      3  N   PHE A   2      10.781   6.730  19.899  0.00  0.00    -0.298 N 
ATOM      4  H   PHE A   2      10.657   6.932  18.886  0.00  0.00    +0.150 HD
ENDROOT
BRANCH   1   5
ATOM      5  CA  HIS A   1       9.812   8.907  20.203  0.00  0.00    +0.151 C 
BRANCH   5   6
ATOM      6  N   HIS A   1      10.258   9.124  18.826  0.00  0.00    -0.238 NA
ATOM      7  H   HIS A   1       9.809   8.598  18.049  0.00  0.00    +0.142 HD
ENDBRANCH   5   6
BRANCH   5   8
ATOM      8  CB  HIS A   1       8.285   8.841  20.281  0.00  0.00    +0.074 C 
BRANCH   8   9
ATOM      9  CG  HIS A   1       7.610  10.105  19.849  0.00  0.00    +0.082 A 
ATOM     10  CD2 HIS A   1       7.463  11.295  20.479  0.00  0.00    +0.115 A 
ATOM     11  NE2 HIS A   1       6.774  12.121  19.626  0.00  0.00    -0.221 NA
ATOM     12  CE1 HIS A   1       6.499  11.460  18.514  0.00  0.00    +0.199 A 
ATOM     13  ND1 HIS A   1       7.002  10.243  18.616  0.00  0.00    -0.227 NA
ENDBRANCH   8   9
ENDBRANCH   5   8
ENDBRANCH   1   5
BRANCH   3  14
ATOM     14  CA  PHE A   2      11.360   5.447  20.294  0.00  0.00    +0.141 C 
BRANCH  14  15
ATOM     15  C   PHE A   2      12.880   5.425  20.308  0.00  0.00    +0.227 C 
ATOM     16  O   PHE A   2      13.479   4.666  21.082  0.00  0.00    -0.286 OA
ENDBRANCH  14  15
BRANCH  14  17
ATOM     17  CB  PHE A   2      10.876   4.312  19.376  0.00  0.00    +0.054 C 
BRANCH  17  18
ATOM     18  CG  PHE A   2       9.392   4.025  19.463  0.00  0.00    -0.020 A 
ATOM     19  CD2 PHE A   2       8.584   4.644  20.415  0.00  0.00    -0.004 A 
ATOM     20  CE2 PHE A   2       7.215   4.359  20.493  0.00  0.00    -0.000 A 
ATOM     21  CZ  PHE A   2       6.662   3.423  19.624  0.00  0.00    -0.000 A 
ATOM     22  CE1 PHE A   2       7.457   2.778  18.677  0.00  0.00    -0.000 A 
ATOM     23  CD1 PHE A   2       8.816   3.079  18.602  0.00  0.00    -0.004 A 
ENDBRANCH  17  18
ENDBRANCH  14  17
ENDBRANCH   3  14
TORSDOF 8
REMARK  Name = ../refined-set-2016/3cr5/3cr5_pocket.pdb
REMARK  92 active torsions:
REMARK  status: ('A' for Active; 'I' for Inactive)
REMARK    1  A    between atoms: _1  and  _3
REMARK    2  A    between atoms: _3  and  _4
REMARK    3  A    between atoms: _3  and  _6
REMARK    4  A    between atoms: _6  and  _7
REMARK    5  A    between atoms: _12  and  _14
REMARK    6  A    between atoms: _14  and  _15
REMARK    7  A    between atoms: _14  and  _17
REMARK    8  A    between atoms: _17  and  _18
REMARK    9  A    between atoms: _24  and  _26
REMARK   10  A    between atoms: _26  and  _27
REMARK   11  A    between atoms: _26  and  _29
REMARK   12  A    between atoms: _29  and  _30
REMARK   13  A    between atoms: _33  and  _35
REMARK   14  A    between atoms: _35  and  _36
REMARK   15  A    between atoms: _35  and  _38
REMARK   16  A    between atoms: _38  and  _39
REMARK   17  A    between atoms: _42  and  _44
REMARK   18  A    between atoms: _44  and  _45
REMARK   19  A    between atoms: _44  and  _47
REMARK   20  A    between atoms: _47  and  _48
REMARK   21  A    between atoms: _51  and  _53
REMARK   22  A    between atoms: _53  and  _54
REMARK   23  A    between atoms: _57  and  _59
REMARK   24  A    between atoms: _59  and  _60
REMARK   25  A    between atoms: _59  and  _62
REMARK   26  A    between atoms: _64  and  _66
REMARK   27  A    between atoms: _77  and  _80
REMARK   28  A    between atoms: _80  and  _81
REMARK   29  A    between atoms: _81  and  _82
REMARK   30  A    between atoms: _87  and  _90
REMARK   31  A    between atoms: _90  and  _91
REMARK   32  A    between atoms: _99  and  _102
REMARK   33  A    between atoms: _102  and  _103
REMARK   34  A    between atoms: _111  and  _112
REMARK   35  A    between atoms: _119  and  _123
REMARK   36  A    between atoms: _123  and  _124
REMARK   37  A    between atoms: _123  and  _126
REMARK   38  A    between atoms: _126  and  _127
REMARK   39  A    between atoms: _127  and  _128
REMARK   40  A    between atoms: _130  and  _132
REMARK   41  A    between atoms: _132  and  _133
REMARK   42  A    between atoms: _132  and  _135
REMARK   43  A    between atoms: _135  and  _136
REMARK   44  A    between atoms: _136  and  _137
REMARK   45  A    between atoms: _140  and  _142
REMARK   46  A    between atoms: _142  and  _143
REMARK   47  A    between atoms: _142  and  _145
REMARK   48  A    between atoms: _145  and  _146
REMARK   49  A    between atoms: _146  and  _147
REMARK   50  A    between atoms: _147  and  _148
REMARK   51  A    between atoms: _148  and  _149
REMARK   52  A    between atoms: _153  and  _155
REMARK   53  A    between atoms: _155  and  _156
REMARK   54  A    between atoms: _155  and  _158
REMARK   55  A    between atoms: _161  and  _163
REMARK   56  A    between atoms: _163  and  _164
REMARK   57  A    between atoms: _163  and  _166
REMARK   58  A    between atoms: _169  and  _171
REMARK   59  A    between atoms: _171  and  _172
REMARK   60  A    between atoms: _175  and  _177
REMARK   61  A    between atoms: _177  and  _178
REMARK   62  A    between atoms: _177  and  _180
REMARK   63  A    between atoms: _180  and  _181
REMARK   64  A    between atoms: _184  and  _186
REMARK   65  A    between atoms: _186  and  _187
REMARK   66  A    between atoms: _186  and  _189
REMARK   67  A    between atoms: _189  and  _190
REMARK   68  A    between atoms: _193  and  _195
REMARK   69  A    between atoms: _195  and  _196
REMARK   70  A    between atoms: _195  and  _198
REMARK   71  A    between atoms: _198  and  _199
REMARK   72  A    between atoms: _202  and  _204
REMARK   73  A    between atoms: _204  and  _205
REMARK   74  A    between atoms: _204  and  _207
REMARK   75  A    between atoms: _210  and  _212
REMARK   76  A    between atoms: _212  and  _213
REMARK   77  A    between atoms: _212  and  _215
REMARK   78  A    between atoms: _215  and  _216
REMARK   79  A    between atoms: _222  and  _224
REMARK   80  A    between atoms: _224  and  _225
REMARK   81  A    between atoms: _224  and  _227
REMARK   82  A    between atoms: _227  and  _228
REMARK   83  A    between atoms: _232  and  ZN_257
REMARK   84  A    between atoms: _233  and  _235
REMARK   85  A    between atoms: _235  and  _236
REMARK   86  A    between atoms: _235  and  _238
REMARK   87  A    between atoms: _238  and  _239
REMARK   88  A    between atoms: _239  and  _240
REMARK   89  A    between atoms: _245  and  _247
REMARK   90  A    between atoms: _247  and  _248
REMARK   91  A    between atoms: _247  and  _250
REMARK   92  A    between atoms: _250  and  _251
REMARK                            x       y       z     vdW  Elec       q    Type
REMARK                         _______ _______ _______ _____ _____    ______ ____
ROOT
ATOM      1  C   UNK A   6       6.668  -3.979  24.676  0.00  0.00    +0.000 C 
ATOM      2  C   UNK A   6       7.266  -4.154  26.056  0.00  0.00    +0.000 C 
ATOM      3  O   UNK A   6       6.592  -4.019  27.103  0.00  0.00    +0.000 OA
ATOM      4  N   VAL A   7       8.560  -4.429  26.076  0.00  0.00    +0.000 N 
ATOM      5  CA  VAL A   7       9.243  -4.663  27.353  0.00  0.00    +0.000 C 
ATOM      6  C   VAL A   7       9.482  -3.428  28.212  0.00  0.00    +0.000 C 
ATOM      7  O   VAL A   7       9.455  -3.519  29.431  0.00  0.00    +0.000 OA
ATOM      8  N   PHE A   8       9.706  -2.282  27.579  0.00  0.00    +0.000 N 
ATOM      9  CA  PHE A   8       9.858  -1.005  28.287  0.00  0.00    +0.000 C 
ATOM     10  C   PHE A   8       8.670  -0.698  29.218  0.00  0.00    +0.000 C 
ATOM     11  O   PHE A   8       8.859  -0.235  30.336  0.00  0.00    +0.000 OA
ATOM     12  N   UNK A   9       7.462  -1.045  28.781  0.00  0.00    +0.000 N 
ATOM     13  C   UNK A   9       6.213  -0.670  29.478  0.00  0.00    +0.000 C 
ATOM     14  C   UNK A   9       5.670  -1.683  30.456  0.00  0.00    +0.000 C 
ATOM     15  O   UNK A   9       4.648  -1.443  31.097  0.00  0.00    +0.000 OA
ATOM     16  N   UNK A  10       6.363  -2.806  30.589  0.00  0.00    +0.000 N 
ATOM     17  C   UNK A  10       5.921  -3.880  31.456  0.00  0.00    +0.000 C 
ATOM     18  C   UNK A  10       5.619  -5.133  30.630  0.00  0.00    +0.000 C 
ATOM     19  C   UNK A  10       4.363  -5.026  29.853  0.00  0.00    +0.000 C 
ATOM     20  C   UNK A  10       4.125  -6.259  28.983  0.00  0.00    +0.000 C 
ATOM     21  O   UNK A  10       4.877  -7.261  29.088  0.00  0.00    +0.000 OA
ATOM     22  O   UNK A  10       3.189  -6.196  28.177  0.00  0.00    +0.000 OA
ATOM     23 ZN   UNK A  10       3.098  -7.860  27.295  0.00  0.00    +0.000 Zn
ATOM     24  N   UNK A   6       4.587  -7.690  26.007  0.00  0.00    +0.000 N 
ATOM     25  C   UNK A   6       5.652  -8.409  25.694  0.00  0.00    +0.000 A 
ATOM     26  N   UNK A   6       6.455  -7.665  24.954  0.00  0.00    +0.000 NA
ATOM     27  C   UNK A   6       5.890  -6.421  24.769  0.00  0.00    +0.000 A 
ATOM     28  C   UNK A   6       4.717  -6.436  25.451  0.00  0.00    +0.000 A 
ATOM     29  H   UNK A  10       7.249  -2.919  30.056  0.00  0.00    +0.000 HD
ATOM     30  H   UNK A   9       7.393  -1.606  27.908  0.00  0.00    +0.000 HD
ATOM     31  H   PHE A   8       9.776  -2.290  26.541  0.00  0.00    +0.000 HD
ATOM     32  H   VAL A   7       9.094  -4.479  25.185  0.00  0.00    +0.000 HD
ATOM     33  C   UNK A   6       6.558  -5.353  23.963  0.00  0.00    +0.000 C 
ENDROOT
BRANCH  23  34
ATOM     34  N   UNK A  10       1.400  -7.282  26.421  0.00  0.00    +0.000 N 
ATOM     35  C   UNK A  10       1.168  -6.004  26.170  0.00  0.00    +0.000 A 
ATOM     36  N   UNK A  10      -0.060  -5.891  25.696  0.00  0.00    +0.000 NA
ATOM     37  C   UNK A  10      -0.644  -7.143  25.629  0.00  0.00    +0.000 A 
ATOM     38  C   UNK A  10       0.271  -8.011  26.125  0.00  0.00    +0.000 A 
BRANCH  37  39
ATOM     39  C   UNK A  10      -2.059  -7.325  25.172  0.00  0.00    +0.000 C 
BRANCH  39  40
ATOM     40  C   UNK A  10      -2.329  -8.622  24.411  0.00  0.00    +0.000 C 
BRANCH  40  41
ATOM     41  N   UNK A  10      -1.759  -8.583  23.040  0.00  0.00    +0.000 N 
ATOM     42  H   UNK A  10      -1.343  -7.700  22.680  0.00  0.00    +0.000 HD
ATOM     43  C   PHE A   8      -1.776  -9.678  22.260  0.00  0.00    +0.000 C 
ATOM     44  O   PHE A   8      -2.310 -10.764  22.594  0.00  0.00    +0.000 OA
BRANCH  43  45
ATOM     45  CA  PHE A   8      -1.169  -9.538  20.882  0.00  0.00    +0.000 C 
BRANCH  45  46
ATOM     46  N   PHE A   8      -1.705  -8.348  20.241  0.00  0.00    +0.000 N 
ATOM     47  H   PHE A   8      -1.081  -7.553  19.996  0.00  0.00    +0.000 HD
ATOM     48  C   VAL A   7      -3.012  -8.292  19.972  0.00  0.00    +0.000 C 
ATOM     49  O   VAL A   7      -3.810  -9.229  20.199  0.00  0.00    +0.000 OA
BRANCH  48  50
ATOM     50  CA  VAL A   7      -3.515  -7.026  19.322  0.00  0.00    +0.000 C 
BRANCH  50  51
ATOM     51  N   VAL A   7      -2.772  -5.818  19.784  0.00  0.00    +0.000 N 
ATOM     52  C   UNK A   6      -2.931  -5.475  21.063  0.00  0.00    +0.000 C 
ATOM     53  O   UNK A   6      -3.682  -6.091  21.822  0.00  0.00    +0.000 OA
ATOM     54  H   VAL A   7      -2.162  -5.272  19.143  0.00  0.00    +0.000 HD
BRANCH  52  55
ATOM     55  C   UNK A   6      -2.161  -4.261  21.599  0.00  0.00    +0.000 C 
BRANCH  55  56
ATOM     56  N   UNK A   6      -0.771  -4.214  21.110  0.00  0.00    +0.000 N 
ATOM     57  C   ILE A   5       0.116  -5.149  21.444  0.00  0.00    +0.000 C 
ATOM     58  O   ILE A   5      -0.169  -6.135  22.118  0.00  0.00    +0.000 OA
ATOM     59  H   UNK A   6      -0.477  -3.433  20.490  0.00  0.00    +0.000 HD
BRANCH  57  60
ATOM     60  CA  ILE A   5       1.533  -4.996  20.932  0.00  0.00    +0.000 C 
BRANCH  60  61
ATOM     61  N   ILE A   5       1.549  -4.684  19.486  0.00  0.00    +0.000 N 
ATOM     62  H   ILE A   5       1.991  -3.800  19.162  0.00  0.00    +0.000 HD
ATOM     63  C   LEU A   4       1.013  -5.506  18.591  0.00  0.00    +0.000 C 
ATOM     64  O   LEU A   4       0.536  -6.613  18.885  0.00  0.00    +0.000 OA
BRANCH  63  65
ATOM     65  CA  LEU A   4       1.015  -5.002  17.148  0.00  0.00    +0.000 C 
BRANCH  65  66
ATOM     66  N   LEU A   4       0.557  -3.605  17.065  0.00  0.00    +0.000 N 
ATOM     67  C   ALA A   3      -0.662  -3.249  17.503  0.00  0.00    +0.000 C 
ATOM     68  O   ALA A   3      -1.508  -4.075  17.880  0.00  0.00    +0.000 OA
ATOM     69  H   LEU A   4       1.187  -2.883  16.661  0.00  0.00    +0.000 HD
BRANCH  67  70
ATOM     70  CA  ALA A   3      -1.009  -1.760  17.500  0.00  0.00    +0.000 C 
ATOM     71  CB  ALA A   3      -1.512  -1.310  16.098  0.00  0.00    +0.000 C 
BRANCH  70  72
ATOM     72  N   ALA A   3       0.138  -0.941  17.914  0.00  0.00    +0.000 N 
ATOM     73  C   VAL A   2       0.639  -1.028  19.142  0.00  0.00    +0.000 C 
ATOM     74  O   VAL A   2       0.152  -1.783  20.016  0.00  0.00    +0.000 OA
ATOM     75  H   ALA A   3       0.566  -0.281  17.234  0.00  0.00    +0.000 HD
BRANCH  73  76
ATOM     76  CA  VAL A   2       1.880  -0.171  19.430  0.00  0.00    +0.000 C 
BRANCH  76  77
ATOM     77  N   VAL A   2       2.695  -0.030  18.217  0.00  0.00    +0.000 N 
ATOM     78  C   VAL A   1       3.365  -1.059  17.743  0.00  0.00    +0.000 C 
ATOM     79  O   VAL A   1       3.255  -2.182  18.240  0.00  0.00    +0.000 OA
ATOM     80  H   VAL A   2       2.743   0.888  17.730  0.00  0.00    +0.000 HD
BRANCH  78  81
ATOM     81  CA  VAL A   1       4.249  -0.809  16.487  0.00  0.00    +0.000 C 
BRANCH  81  82
ATOM     82  CB  VAL A   1       5.571  -0.104  16.906  0.00  0.00    +0.000 C 
ATOM     83  CG2 VAL A   1       6.083  -0.687  18.191  0.00  0.00    +0.000 C 
ATOM     84  CG1 VAL A   1       6.626  -0.210  15.764  0.00  0.00    +0.000 C 
ENDBRANCH  81  82
BRANCH  81  85
ATOM     85  N   VAL A   1       3.553   0.011  15.527  0.00  0.00    +0.000 NA
ATOM     86  H   VAL A   1       3.972   0.914  15.224  0.00  0.00    +0.000 HD
ENDBRANCH  81  85
ENDBRANCH  78  81
ENDBRANCH  76  77
BRANCH  76  87
ATOM     87  CB  VAL A   2       1.512   1.237  19.993  0.00  0.00    +0.000 C 
ATOM     88  CG2 VAL A   2       0.527   1.128  21.096  0.00  0.00    +0.000 C 
ATOM     89  CG1 VAL A   2       2.771   1.952  20.462  0.00  0.00    +0.000 C 
ENDBRANCH  76  87
ENDBRANCH  73  76
ENDBRANCH  70  72
ENDBRANCH  67  70
ENDBRANCH  65  66
BRANCH  65  90
ATOM     90  CB  LEU A   4       2.418  -5.132  16.587  0.00  0.00    +0.000 C 
BRANCH  90  91
ATOM     91  CG  LEU A   4       2.588  -4.661  15.132  0.00  0.00    +0.000 C 
ATOM     92  CD2 LEU A   4       3.997  -4.921  14.652  0.00  0.00    +0.000 C 
ATOM     93  CD1 LEU A   4       1.588  -5.384  14.246  0.00  0.00    +0.000 C 
ENDBRANCH  90  91
ENDBRANCH  65  90
ENDBRANCH  63  65
ENDBRANCH  60  61
BRANCH  60  94
ATOM     94  CB  ILE A   5       2.303  -3.962  21.774  0.00  0.00    +0.000 C 
ATOM     95  CG2 ILE A   5       2.110  -4.252  23.281  0.00  0.00    +0.000 C 
BRANCH  94  96
ATOM     96  CG1 ILE A   5       3.770  -3.951  21.342  0.00  0.00    +0.000 C 
ATOM     97  CD1 ILE A   5       4.486  -2.629  21.691  0.00  0.00    +0.000 C 
ENDBRANCH  94  96
ENDBRANCH  60  94
ENDBRANCH  57  60
ENDBRANCH  55  56
BRANCH  55  98
ATOM     98  C   UNK A   6      -2.928  -3.000  21.220  0.00  0.00    +0.000 C 
BRANCH  98  99
ATOM     99  C   UNK A   6      -2.515  -1.823  22.051  0.00  0.00    +0.000 C 
ATOM    100  O   UNK A   6      -1.857  -2.098  23.058  0.00  0.00    +0.000 OA
ATOM    101  O   UNK A   6      -2.816  -0.651  21.719  0.00  0.00    +0.000 OA
ENDBRANCH  98  99
ENDBRANCH  55  98
ENDBRANCH  52  55
ENDBRANCH  50  51
BRANCH  50 102
ATOM    102  CB  VAL A   7      -3.443  -7.437  17.819  0.00  0.00    +0.000 C 
ATOM    103  CG2 VAL A   7      -2.153  -7.260  17.139  0.00  0.00    +0.000 C 
ATOM    104  CG1 VAL A   7      -4.775  -7.289  17.064  0.00  0.00    +0.000 C 
ENDBRANCH  50 102
ENDBRANCH  48  50
ENDBRANCH  45  46
BRANCH  45 105
ATOM    105  CB  PHE A   8       0.340  -9.494  20.998  0.00  0.00    +0.000 C 
BRANCH 105 106
ATOM    106  CG  PHE A   8       0.913 -10.695  21.736  0.00  0.00    +0.000 A 
ATOM    107  CD2 PHE A   8       1.226 -10.603  23.090  0.00  0.00    +0.000 A 
ATOM    108  CE2 PHE A   8       1.724 -11.743  23.781  0.00  0.00    +0.000 A 
ATOM    109  CZ  PHE A   8       1.915 -12.929  23.099  0.00  0.00    +0.000 A 
ATOM    110  CE1 PHE A   8       1.613 -13.027  21.739  0.00  0.00    +0.000 A 
ATOM    111  CD1 PHE A   8       1.086 -11.926  21.079  0.00  0.00    +0.000 A 
ENDBRANCH 105 106
ENDBRANCH  45 105
ENDBRANCH  43  45
ENDBRANCH  40  41
BRANCH  40 112
ATOM    112  C   UNK A  10      -3.834  -8.836  24.401  0.00  0.00    +0.000 C 
ATOM    113  O   UNK A  10      -4.398  -9.466  25.310  0.00  0.00    +0.000 OA
ATOM    114  N   UNK A  10      -4.518  -8.299  23.399  0.00  0.00    +0.000 N 
ATOM    115  H   UNK A  10      -4.019  -7.729  22.686  0.00  0.00    +0.000 HD
BRANCH 114 116
ATOM    116  C   UNK A  10      -5.955  -8.495  23.282  0.00  0.00    +0.000 C 
BRANCH 116 117
ATOM    117  C   UNK A  10      -6.358  -9.963  23.310  0.00  0.00    +0.000 C 
ATOM    118  O   UNK A  10      -7.355 -10.319  23.939  0.00  0.00    +0.000 OA
ENDBRANCH 116 117
BRANCH 116 119
ATOM    119  C   UNK A  10      -6.464  -7.783  22.039  0.00  0.00    +0.000 C 
BRANCH 119 120
ATOM    120  C   UNK A  10      -7.924  -7.965  21.633  0.00  0.00    +0.000 C 
BRANCH 120 121
ATOM    121  C   UNK A  10      -8.381  -6.885  20.654  0.00  0.00    +0.000 C 
ATOM    122  O   UNK A  10      -9.587  -6.712  20.433  0.00  0.00    +0.000 OA
ATOM    123  N   UNK A  10      -7.411  -6.098  20.091  0.00  0.00    +0.000 N 
ATOM    124  H   UNK A  10      -6.409  -6.277  20.303  0.00  0.00    +0.000 HD
ATOM    125  H   UNK A  10      -7.677  -5.322  19.452  0.00  0.00    +0.000 HD
ENDBRANCH 120 121
ENDBRANCH 119 120
ENDBRANCH 116 119
ENDBRANCH 114 116
ENDBRANCH  40 112
ENDBRANCH  39  40
ENDBRANCH  37  39
ENDBRANCH  23  34
BRANCH   1 128
ATOM    126  C   ILE A   5       7.875  -1.877  24.266  0.00  0.00    +0.000 C 
ATOM    127  O   ILE A   5       7.518  -1.393  25.338  0.00  0.00    +0.000 OA
ATOM    128  N   UNK A   6       7.520  -3.099  23.869  0.00  0.00    +0.000 N 
ATOM    129  H   UNK A   6       7.861  -3.443  22.949  0.00  0.00    +0.000 HD
BRANCH 126 130
ATOM    130  CA  ILE A   5       8.807  -1.096  23.326  0.00  0.00    +0.000 C 
BRANCH 130 133
ATOM    131  C   LEU A   4      10.889  -2.352  23.693  0.00  0.00    +0.000 C 
ATOM    132  O   LEU A   4      10.896  -2.108  24.924  0.00  0.00    +0.000 OA
ATOM    133  N   ILE A   5       9.960  -1.881  22.868  0.00  0.00    +0.000 N 
ATOM    134  H   ILE A   5      10.054  -2.077  21.851  0.00  0.00    +0.000 HD
BRANCH 131 135
ATOM    135  CA  LEU A   4      11.947  -3.279  23.066  0.00  0.00    +0.000 C 
ATOM    136  CB  LEU A   4      13.095  -2.489  22.447  0.00  0.00    +0.000 C 
BRANCH 135 139
ATOM    137  C   ALA A   3      10.539  -5.154  22.453  0.00  0.00    +0.000 C 
ATOM    138  O   ALA A   3      10.185  -5.316  23.630  0.00  0.00    +0.000 OA
ATOM    139  N   LEU A   4      11.368  -4.190  22.070  0.00  0.00    +0.000 N 
ATOM    140  H   LEU A   4      11.607  -4.080  21.064  0.00  0.00    +0.000 HD
BRANCH 137 141
ATOM    141  CA  ALA A   3      10.043  -6.074  21.375  0.00  0.00    +0.000 C 
BRANCH 141 144
ATOM    142  C   VAL A   2       8.697  -4.402  20.198  0.00  0.00    +0.000 C 
ATOM    143  O   VAL A   2       8.020  -4.182  21.181  0.00  0.00    +0.000 OA
ATOM    144  N   ALA A   3       9.661  -5.305  20.177  0.00  0.00    +0.000 N 
ATOM    145  H   ALA A   3      10.167  -5.479  19.285  0.00  0.00    +0.000 HD
BRANCH 142 146
ATOM    146  CA  VAL A   2       8.438  -3.648  18.898  0.00  0.00    +0.000 C 
BRANCH 146 149
ATOM    147  C   VAL A   1      10.557  -2.447  18.840  0.00  0.00    +0.000 C 
ATOM    148  O   VAL A   1      10.381  -1.966  19.928  0.00  0.00    +0.000 OA
ATOM    149  N   VAL A   2       9.686  -3.255  18.259  0.00  0.00    +0.000 N 
ATOM    150  H   VAL A   2       9.900  -3.623  17.310  0.00  0.00    +0.000 HD
BRANCH 147 151
ATOM    151  CA  VAL A   1      11.775  -2.078  18.043  0.00  0.00    +0.000 C 
BRANCH 151 152
ATOM    152  N   VAL A   1      12.355  -3.295  17.458  0.00  0.00    +0.000 NA
ATOM    153  H   VAL A   1      12.366  -3.415  16.425  0.00  0.00    +0.000 HD
ENDBRANCH 151 152
BRANCH 151 154
ATOM    154  CB  VAL A   1      11.370  -1.063  16.950  0.00  0.00    +0.000 C 
ATOM    155  CG2 VAL A   1      10.534   0.105  17.521  0.00  0.00    +0.000 C 
BRANCH 154 156
ATOM    156  CG1 VAL A   1      12.632  -0.522  16.275  0.00  0.00    +0.000 C 
ATOM    157  CD1 VAL A   1      12.311   0.030  14.902  0.00  0.00    +0.000 C 
ENDBRANCH 154 156
ENDBRANCH 151 154
ENDBRANCH 147 151
ENDBRANCH 146 149
BRANCH 146 158
ATOM    158  CB  VAL A   2       7.580  -4.493  17.932  0.00  0.00    +0.000 C 
ATOM    159  CG2 VAL A   2       6.227  -4.826  18.549  0.00  0.00    +0.000 C 
BRANCH 158 160
ATOM    160  OG1 VAL A   2       7.322  -3.707  16.747  0.00  0.00    +0.000 OA
ATOM    161  HG1 VAL A   2       8.181  -3.468  16.317  0.00  0.00    +0.000 HD
ENDBRANCH 158 160
ENDBRANCH 146 158
ENDBRANCH 142 146
ENDBRANCH 141 144
BRANCH 141 162
ATOM    162  CB  ALA A   3      11.134  -7.083  21.012  0.00  0.00    +0.000 C 
ATOM    163  CG2 ALA A   3      11.664  -7.843  22.269  0.00  0.00    +0.000 C 
BRANCH 162 164
ATOM    164  OG1 ALA A   3      10.576  -7.995  20.064  0.00  0.00    +0.000 OA
ATOM    165  HG1 ALA A   3      10.284  -7.496  19.260  0.00  0.00    +0.000 HD
ENDBRANCH 162 164
ENDBRANCH 141 162
ENDBRANCH 137 141
ENDBRANCH 135 139
ENDBRANCH 131 135
ENDBRANCH 130 133
BRANCH 130 166
ATOM    166  CB  ILE A   5       8.035  -0.611  22.116  0.00  0.00    +0.000 C 
ATOM    167  SG  ILE A   5       8.926   0.767  21.292  0.00  0.00    +0.000 S 
ENDBRANCH 130 166
ENDBRANCH 126 130
ENDBRANCH   1 128
BRANCH  17 168
ATOM    168  C   UNK A  10       6.977  -4.220  32.474  0.00  0.00    +0.000 C 
ATOM    169  O   UNK A  10       8.125  -3.790  32.362  0.00  0.00    +0.000 OA
ENDBRANCH  17 168
BRANCH  13 170
ATOM    170  C   UNK A   9       5.153  -0.344  28.434  0.00  0.00    +0.000 C 
BRANCH 170 171
ATOM    171  C   UNK A   9       5.478   0.875  27.667  0.00  0.00    +0.000 A 
ATOM    172  C   UNK A   9       4.755   2.022  27.859  0.00  0.00    +0.000 A 
ATOM    173  C   UNK A   9       5.095   3.175  27.194  0.00  0.00    +0.000 A 
ATOM    174  C   UNK A   9       6.177   3.185  26.340  0.00  0.00    +0.000 A 
ATOM    175  C   UNK A   9       6.925   2.039  26.150  0.00  0.00    +0.000 A 
ATOM    176  C   UNK A   9       6.579   0.898  26.816  0.00  0.00    +0.000 A 
ENDBRANCH 170 171
ENDBRANCH  13 170
BRANCH   5 177
ATOM    177  CB  VAL A   7      10.527  -5.443  27.109  0.00  0.00    +0.000 C 
BRANCH 177 178
ATOM    178  CG  VAL A   7      10.238  -6.779  26.401  0.00  0.00    +0.000 C 
BRANCH 178 179
ATOM    179  CD  VAL A   7      11.473  -7.661  26.244  0.00  0.00    +0.000 C 
ATOM    180  OE2 VAL A   7      11.328  -8.880  26.457  0.00  0.00    +0.000 OA
ATOM    181  OE1 VAL A   7      12.570  -7.143  25.890  0.00  0.00    +0.000 OA
ENDBRANCH 178 179
ENDBRANCH 177 178
ENDBRANCH   5 177
BRANCH   9 182
ATOM    182  CB  PHE A   8      10.102   0.136  27.280  0.00  0.00    +0.000 C 
BRANCH 182 183
ATOM    183  CG  PHE A   8      10.695   1.379  27.894  0.00  0.00    +0.000 A 
ATOM    184  CD2 PHE A   8      11.780   1.297  28.777  0.00  0.00    +0.000 A 
ATOM    185  CE2 PHE A   8      12.328   2.434  29.348  0.00  0.00    +0.000 A 
ATOM    186  CZ  PHE A   8      11.799   3.687  29.041  0.00  0.00    +0.000 A 
ATOM    187  CE1 PHE A   8      10.721   3.789  28.171  0.00  0.00    +0.000 A 
ATOM    188  CD1 PHE A   8      10.174   2.634  27.591  0.00  0.00    +0.000 A 
ENDBRANCH 182 183
ENDBRANCH   9 182
TORSDOF 63
REMARK  Name = ../refined-set-2016/3cr5/3cr5_pocket.pdb
REMARK  92 active torsions:
REMARK  status: ('A' for Active; 'I' for Inactive)
REMARK    1  A    between atoms: _1  and  _3
REMARK    2  A    between atoms: _3  and  _4
REMARK    3  A    between atoms: _3  and  _6
REMARK    4  A    between atoms: _6  and  _7
REMARK    5  A    between atoms: _12  and  _14
REMARK    6  A    between atoms: _14  and  _15
REMARK    7  A    between atoms: _14  and  _17
REMARK    8  A    between atoms: _17  and  _18
REMARK    9  A    between atoms: _24  and  _26
REMARK   10  A    between atoms: _26  and  _27
REMARK   11  A    between atoms: _26  and  _29
REMARK   12  A    between atoms: _29  and  _30
REMARK   13  A    between atoms: _33  and  _35
REMARK   14  A    between atoms: _35  and  _36
REMARK   15  A    between atoms: _35  and  _38
REMARK   16  A    between atoms: _38  and  _39
REMARK   17  A    between atoms: _42  and  _44
REMARK   18  A    between atoms: _44  and  _45
REMARK   19  A    between atoms: _44  and  _47
REMARK   20  A    between atoms: _47  and  _48
REMARK   21  A    between atoms: _51  and  _53
REMARK   22  A    between atoms: _53  and  _54
REMARK   23  A    between atoms: _57  and  _59
REMARK   24  A    between atoms: _59  and  _60
REMARK   25  A    between atoms: _59  and  _62
REMARK   26  A    between atoms: _64  and  _66
REMARK   27  A    between atoms: _77  and  _80
REMARK   28  A    between atoms: _80  and  _81
REMARK   29  A    between atoms: _81  and  _82
REMARK   30  A    between atoms: _87  and  _90
REMARK   31  A    between atoms: _90  and  _91
REMARK   32  A    between atoms: _99  and  _102
REMARK   33  A    between atoms: _102  and  _103
REMARK   34  A    between atoms: _111  and  _112
REMARK   35  A    between atoms: _119  and  _123
REMARK   36  A    between atoms: _123  and  _124
REMARK   37  A    between atoms: _123  and  _126
REMARK   38  A    between atoms: _126  and  _127
REMARK   39  A    between atoms: _127  and  _128
REMARK   40  A    between atoms: _130  and  _132
REMARK   41  A    between atoms: _132  and  _133
REMARK   42  A    between atoms: _132  and  _135
REMARK   43  A    between atoms: _135  and  _136
REMARK   44  A    between atoms: _136  and  _137
REMARK   45  A    between atoms: _140  and  _142
REMARK   46  A    between atoms: _142  and  _143
REMARK   47  A    between atoms: _142  and  _145
REMARK   48  A    between atoms: _145  and  _146
REMARK   49  A    between atoms: _146  and  _147
REMARK   50  A    between atoms: _147  and  _148
REMARK   51  A    between atoms: _148  and  _149
REMARK   52  A    between atoms: _153  and  _155
REMARK   53  A    between atoms: _155  and  _156
REMARK   54  A    between atoms: _155  and  _158
REMARK   55  A    between atoms: _161  and  _163
REMARK   56  A    between atoms: _163  and  _164
REMARK   57  A    between atoms: _163  and  _166
REMARK   58  A    between atoms: _169  and  _171
REMARK   59  A    between atoms: _171  and  _172
REMARK   60  A    between atoms: _175  and  _177
REMARK   61  A    between atoms: _177  and  _178
REMARK   62  A    between atoms: _177  and  _180
REMARK   63  A    between atoms: _180  and  _181
REMARK   64  A    between atoms: _184  and  _186
REMARK   65  A    between atoms: _186  and  _187
REMARK   66  A    between atoms: _186  and  _189
REMARK   67  A    between atoms: _189  and  _190
REMARK   68  A    between atoms: _193  and  _195
REMARK   69  A    between atoms: _195  and  _196
REMARK   70  A    between atoms: _195  and  _198
REMARK   71  A    between atoms: _198  and  _199
REMARK   72  A    between atoms: _202  and  _204
REMARK   73  A    between atoms: _204  and  _205
REMARK   74  A    between atoms: _204  and  _207
REMARK   75  A    between atoms: _210  and  _212
REMARK   76  A    between atoms: _212  and  _213
REMARK   77  A    between atoms: _212  and  _215
REMARK   78  A    between atoms: _215  and  _216
REMARK   79  A    between atoms: _222  and  _224
REMARK   80  A    between atoms: _224  and  _225
REMARK   81  A    between atoms: _224  and  _227
REMARK   82  A    between atoms: _227  and  _228
REMARK   83  A    between atoms: _232  and  ZN_257
REMARK   84  A    between atoms: _233  and  _235
REMARK   85  A    between atoms: _235  and  _236
REMARK   86  A    between atoms: _235  and  _238
REMARK   87  A    between atoms: _238  and  _239
REMARK   88  A    between atoms: _239  and  _240
REMARK   89  A    between atoms: _245  and  _247
REMARK   90  A    between atoms: _247  and  _248
REMARK   91  A    between atoms: _247  and  _250
REMARK   92  A    between atoms: _250  and  _251
REMARK                            x       y       z     vdW  Elec       q    Type
REMARK                         _______ _______ _______ _____ _____    ______ ____
ROOT
ATOM      1  CA  MET A   1       3.600   9.588  17.241  0.00  0.00    +0.002 C 
ENDROOT
BRANCH   1   2
ATOM      2  N   MET A   1       2.872  10.834  17.686  0.00  0.00    +0.387 N 
ATOM      3  H1  MET A   1       2.962  10.937  18.717  0.00  0.00    -0.089 HD
ATOM      4  H2  MET A   1       1.867  10.757  17.431  0.00  0.00    -0.089 HD
ATOM      5  H3  MET A   1       3.288  11.663  17.216  0.00  0.00    -0.089 HD
ENDBRANCH   1   2
BRANCH   1   6
ATOM      6  C   MET A   1       3.461   9.455  15.760  0.00  0.00    +0.185 C 
ATOM      7  O   MET A   1       2.439   9.841  15.217  0.00  0.00    -0.291 OA
ENDBRANCH   1   6
BRANCH   1   8
ATOM      8  CB  MET A   1       3.015   8.316  17.844  0.00  0.00    -0.003 C 
BRANCH   8   9
ATOM      9  CG  MET A   1       2.951   8.289  19.336  0.00  0.00    +0.056 C 
BRANCH   9  10
ATOM     10  SD  MET A   1       3.815   6.883  20.016  0.00  0.00    -0.139 S 
ATOM     11  CE  MET A   1       5.326   7.752  20.387  0.00  0.00    +0.069 C 
ENDBRANCH   9  10
ENDBRANCH   8   9
ENDBRANCH   1   8
TORSDOF 5
REMARK  Name = ../refined-set-2016/3cr5/3cr5_pocket.pdb
REMARK  92 active torsions:
REMARK  status: ('A' for Active; 'I' for Inactive)
REMARK    1  A    between atoms: _1  and  _3
REMARK    2  A    between atoms: _3  and  _4
REMARK    3  A    between atoms: _3  and  _6
REMARK    4  A    between atoms: _6  and  _7
REMARK    5  A    between atoms: _12  and  _14
REMARK    6  A    between atoms: _14  and  _15
REMARK    7  A    between atoms: _14  and  _17
REMARK    8  A    between atoms: _17  and  _18
REMARK    9  A    between atoms: _24  and  _26
REMARK   10  A    between atoms: _26  and  _27
REMARK   11  A    between atoms: _26  and  _29
REMARK   12  A    between atoms: _29  and  _30
REMARK   13  A    between atoms: _33  and  _35
REMARK   14  A    between atoms: _35  and  _36
REMARK   15  A    between atoms: _35  and  _38
REMARK   16  A    between atoms: _38  and  _39
REMARK   17  A    between atoms: _42  and  _44
REMARK   18  A    between atoms: _44  and  _45
REMARK   19  A    between atoms: _44  and  _47
REMARK   20  A    between atoms: _47  and  _48
REMARK   21  A    between atoms: _51  and  _53
REMARK   22  A    between atoms: _53  and  _54
REMARK   23  A    between atoms: _57  and  _59
REMARK   24  A    between atoms: _59  and  _60
REMARK   25  A    between atoms: _59  and  _62
REMARK   26  A    between atoms: _64  and  _66
REMARK   27  A    between atoms: _77  and  _80
REMARK   28  A    between atoms: _80  and  _81
REMARK   29  A    between atoms: _81  and  _82
REMARK   30  A    between atoms: _87  and  _90
REMARK   31  A    between atoms: _90  and  _91
REMARK   32  A    between atoms: _99  and  _102
REMARK   33  A    between atoms: _102  and  _103
REMARK   34  A    between atoms: _111  and  _112
REMARK   35  A    between atoms: _119  and  _123
REMARK   36  A    between atoms: _123  and  _124
REMARK   37  A    between atoms: _123  and  _126
REMARK   38  A    between atoms: _126  and  _127
REMARK   39  A    between atoms: _127  and  _128
REMARK   40  A    between atoms: _130  and  _132
REMARK   41  A    between atoms: _132  and  _133
REMARK   42  A    between atoms: _132  and  _135
REMARK   43  A    between atoms: _135  and  _136
REMARK   44  A    between atoms: _136  and  _137
REMARK   45  A    between atoms: _140  and  _142
REMARK   46  A    between atoms: _142  and  _143
REMARK   47  A    between atoms: _142  and  _145
REMARK   48  A    between atoms: _145  and  _146
REMARK   49  A    between atoms: _146  and  _147
REMARK   50  A    between atoms: _147  and  _148
REMARK   51  A    between atoms: _148  and  _149
REMARK   52  A    between atoms: _153  and  _155
REMARK   53  A    between atoms: _155  and  _156
REMARK   54  A    between atoms: _155  and  _158
REMARK   55  A    between atoms: _161  and  _163
REMARK   56  A    between atoms: _163  and  _164
REMARK   57  A    between atoms: _163  and  _166
REMARK   58  A    between atoms: _169  and  _171
REMARK   59  A    between atoms: _171  and  _172
REMARK   60  A    between atoms: _175  and  _177
REMARK   61  A    between atoms: _177  and  _178
REMARK   62  A    between atoms: _177  and  _180
REMARK   63  A    between atoms: _180  and  _181
REMARK   64  A    between atoms: _184  and  _186
REMARK   65  A    between atoms: _186  and  _187
REMARK   66  A    between atoms: _186  and  _189
REMARK   67  A    between atoms: _189  and  _190
REMARK   68  A    between atoms: _193  and  _195
REMARK   69  A    between atoms: _195  and  _196
REMARK   70  A    between atoms: _195  and  _198
REMARK   71  A    between atoms: _198  and  _199
REMARK   72  A    between atoms: _202  and  _204
REMARK   73  A    between atoms: _204  and  _205
REMARK   74  A    between atoms: _204  and  _207
REMARK   75  A    between atoms: _210  and  _212
REMARK   76  A    between atoms: _212  and  _213
REMARK   77  A    between atoms: _212  and  _215
REMARK   78  A    between atoms: _215  and  _216
REMARK   79  A    between atoms: _222  and  _224
REMARK   80  A    between atoms: _224  and  _225
REMARK   81  A    between atoms: _224  and  _227
REMARK   82  A    between atoms: _227  and  _228
REMARK   83  A    between atoms: _232  and  ZN_257
REMARK   84  A    between atoms: _233  and  _235
REMARK   85  A    between atoms: _235  and  _236
REMARK   86  A    between atoms: _235  and  _238
REMARK   87  A    between atoms: _238  and  _239
REMARK   88  A    between atoms: _239  and  _240
REMARK   89  A    between atoms: _245  and  _247
REMARK   90  A    between atoms: _247  and  _248
REMARK   91  A    between atoms: _247  and  _250
REMARK   92  A    between atoms: _250  and  _251
REMARK                            x       y       z     vdW  Elec       q    Type
REMARK                         _______ _______ _______ _____ _____    ______ ____
ROOT
ATOM      1  C   GLU A   1       3.800   3.758  16.419  0.00  0.00    +0.238 C 
ATOM      2  O   GLU A   1       3.699   2.835  17.274  0.00  0.00    -0.274 OA
ATOM      3  N   LYS A   2       2.723   4.322  15.853  0.00  0.00    -0.298 N 
ATOM      4  H   LYS A   2       2.827   5.131  15.208  0.00  0.00    +0.150 HD
ENDROOT
BRANCH   1   5
ATOM      5  CA  GLU A   1       5.184   4.256  15.998  0.00  0.00    +0.145 C 
BRANCH   5   6
ATOM      6  N   GLU A   1       5.317   4.362  14.556  0.00  0.00    -0.238 NA
ATOM      7  H   GLU A   1       5.562   5.284  14.142  0.00  0.00    +0.142 HD
ENDBRANCH   5   6
BRANCH   5   8
ATOM      8  CB  GLU A   1       5.578   5.567  16.683  0.00  0.00    +0.038 C 
BRANCH   8   9
ATOM      9  CG  GLU A   1       7.097   5.823  16.640  0.00  0.00    +0.116 C 
BRANCH   9  10
ATOM     10  CD  GLU A   1       7.522   7.229  16.957  0.00  0.00    +0.365 C 
ATOM     11  OE2 GLU A   1       8.674   7.371  17.420  0.00  0.00    -0.246 OA
ATOM     12  OE1 GLU A   1       6.761   8.200  16.726  0.00  0.00    -0.246 OA
ENDBRANCH   9  10
ENDBRANCH   8   9
ENDBRANCH   5   8
ENDBRANCH   1   5
BRANCH   3  13
ATOM     13  CA  LYS A   2       1.374   3.769  16.165  0.00  0.00    +0.137 C 
BRANCH  13  14
ATOM     14  C   LYS A   2       1.204   2.327  15.681  0.00  0.00    +0.227 C 
ATOM     15  O   LYS A   2       0.537   1.531  16.344  0.00  0.00    -0.286 OA
ENDBRANCH  13  14
BRANCH  13  16
ATOM     16  CB  LYS A   2       0.257   4.667  15.587  0.00  0.00    +0.028 C 
BRANCH  16  17
ATOM     17  CG  LYS A   2       0.310   6.085  16.131  0.00  0.00    -0.000 C 
BRANCH  17  18
ATOM     18  CD  LYS A   2      -0.850   6.944  15.583  0.00  0.00    -0.024 C 
BRANCH  18  19
ATOM     19  CE  LYS A   2      -0.640   8.417  15.959  0.00  0.00    -0.086 C 
BRANCH  19  20
ATOM     20  NZ  LYS A   2      -1.937   9.180  16.065  0.00  0.00    +0.380 N 
ATOM     21  HZ1 LYS A   2      -2.535   8.745  16.797  0.00  0.00    -0.089 HD
ATOM     22  HZ2 LYS A   2      -1.737  10.168  16.321  0.00  0.00    -0.089 HD
ATOM     23  HZ3 LYS A   2      -2.431   9.151  15.150  0.00  0.00    -0.089 HD
ENDBRANCH  19  20
ENDBRANCH  18  19
ENDBRANCH  17  18
ENDBRANCH  16  17
ENDBRANCH  13  16
ENDBRANCH   3  13
TORSDOF 12
REMARK  Name = ../refined-set-2016/3cr5/3cr5_pocket.pdb
REMARK  92 active torsions:
REMARK  status: ('A' for Active; 'I' for Inactive)
REMARK    1  A    between atoms: _1  and  _3
REMARK    2  A    between atoms: _3  and  _4
REMARK    3  A    between atoms: _3  and  _6
REMARK    4  A    between atoms: _6  and  _7
REMARK    5  A    between atoms: _12  and  _14
REMARK    6  A    between atoms: _14  and  _15
REMARK    7  A    between atoms: _14  and  _17
REMARK    8  A    between atoms: _17  and  _18
REMARK    9  A    between atoms: _24  and  _26
REMARK   10  A    between atoms: _26  and  _27
REMARK   11  A    between atoms: _26  and  _29
REMARK   12  A    between atoms: _29  and  _30
REMARK   13  A    between atoms: _33  and  _35
REMARK   14  A    between atoms: _35  and  _36
REMARK   15  A    between atoms: _35  and  _38
REMARK   16  A    between atoms: _38  and  _39
REMARK   17  A    between atoms: _42  and  _44
REMARK   18  A    between atoms: _44  and  _45
REMARK   19  A    between atoms: _44  and  _47
REMARK   20  A    between atoms: _47  and  _48
REMARK   21  A    between atoms: _51  and  _53
REMARK   22  A    between atoms: _53  and  _54
REMARK   23  A    between atoms: _57  and  _59
REMARK   24  A    between atoms: _59  and  _60
REMARK   25  A    between atoms: _59  and  _62
REMARK   26  A    between atoms: _64  and  _66
REMARK   27  A    between atoms: _77  and  _80
REMARK   28  A    between atoms: _80  and  _81
REMARK   29  A    between atoms: _81  and  _82
REMARK   30  A    between atoms: _87  and  _90
REMARK   31  A    between atoms: _90  and  _91
REMARK   32  A    between atoms: _99  and  _102
REMARK   33  A    between atoms: _102  and  _103
REMARK   34  A    between atoms: _111  and  _112
REMARK   35  A    between atoms: _119  and  _123
REMARK   36  A    between atoms: _123  and  _124
REMARK   37  A    between atoms: _123  and  _126
REMARK   38  A    between atoms: _126  and  _127
REMARK   39  A    between atoms: _127  and  _128
REMARK   40  A    between atoms: _130  and  _132
REMARK   41  A    between atoms: _132  and  _133
REMARK   42  A    between atoms: _132  and  _135
REMARK   43  A    between atoms: _135  and  _136
REMARK   44  A    between atoms: _136  and  _137
REMARK   45  A    between atoms: _140  and  _142
REMARK   46  A    between atoms: _142  and  _143
REMARK   47  A    between atoms: _142  and  _145
REMARK   48  A    between atoms: _145  and  _146
REMARK   49  A    between atoms: _146  and  _147
REMARK   50  A    between atoms: _147  and  _148
REMARK   51  A    between atoms: _148  and  _149
REMARK   52  A    between atoms: _153  and  _155
REMARK   53  A    between atoms: _155  and  _156
REMARK   54  A    between atoms: _155  and  _158
REMARK   55  A    between atoms: _161  and  _163
REMARK   56  A    between atoms: _163  and  _164
REMARK   57  A    between atoms: _163  and  _166
REMARK   58  A    between atoms: _169  and  _171
REMARK   59  A    between atoms: _171  and  _172
REMARK   60  A    between atoms: _175  and  _177
REMARK   61  A    between atoms: _177  and  _178
REMARK   62  A    between atoms: _177  and  _180
REMARK   63  A    between atoms: _180  and  _181
REMARK   64  A    between atoms: _184  and  _186
REMARK   65  A    between atoms: _186  and  _187
REMARK   66  A    between atoms: _186  and  _189
REMARK   67  A    between atoms: _189  and  _190
REMARK   68  A    between atoms: _193  and  _195
REMARK   69  A    between atoms: _195  and  _196
REMARK   70  A    between atoms: _195  and  _198
REMARK   71  A    between atoms: _198  and  _199
REMARK   72  A    between atoms: _202  and  _204
REMARK   73  A    between atoms: _204  and  _205
REMARK   74  A    between atoms: _204  and  _207
REMARK   75  A    between atoms: _210  and  _212
REMARK   76  A    between atoms: _212  and  _213
REMARK   77  A    between atoms: _212  and  _215
REMARK   78  A    between atoms: _215  and  _216
REMARK   79  A    between atoms: _222  and  _224
REMARK   80  A    between atoms: _224  and  _225
REMARK   81  A    between atoms: _224  and  _227
REMARK   82  A    between atoms: _227  and  _228
REMARK   83  A    between atoms: _232  and  ZN_257
REMARK   84  A    between atoms: _233  and  _235
REMARK   85  A    between atoms: _235  and  _236
REMARK   86  A    between atoms: _235  and  _238
REMARK   87  A    between atoms: _238  and  _239
REMARK   88  A    between atoms: _239  and  _240
REMARK   89  A    between atoms: _245  and  _247
REMARK   90  A    between atoms: _247  and  _248
REMARK   91  A    between atoms: _247  and  _250
REMARK   92  A    between atoms: _250  and  _251
REMARK                            x       y       z     vdW  Elec       q    Type
REMARK                         _______ _______ _______ _____ _____    ______ ____
ROOT
ATOM      1  CB  PHE A   1       5.829 -11.433  22.686  0.00  0.00    +0.051 C 
ENDROOT
BRANCH   1   2
ATOM      2  CG  PHE A   1       5.666 -10.069  22.103  0.00  0.00    -0.020 A 
ATOM      3  CD2 PHE A   1       4.424  -9.439  22.135  0.00  0.00    -0.004 A 
ATOM      4  CE2 PHE A   1       4.258  -8.175  21.562  0.00  0.00    -0.000 A 
ATOM      5  CZ  PHE A   1       5.347  -7.532  20.967  0.00  0.00    -0.000 A 
ATOM      6  CE1 PHE A   1       6.587  -8.162  20.897  0.00  0.00    -0.000 A 
ATOM      7  CD1 PHE A   1       6.739  -9.438  21.470  0.00  0.00    -0.004 A 
ENDBRANCH   1   2
BRANCH   1   8
ATOM      8  CA  PHE A   1       5.480 -12.543  21.715  0.00  0.00    +0.137 C 
BRANCH   8   9
ATOM      9  N   PHE A   1       5.473 -13.824  22.403  0.00  0.00    -0.239 NA
ATOM     10  H   PHE A   1       5.824 -13.902  23.379  0.00  0.00    +0.142 HD
ENDBRANCH   8   9
BRANCH   8  11
ATOM     11  C   PHE A   1       6.517 -12.577  20.565  0.00  0.00    +0.224 C 
ATOM     12  O   PHE A   1       6.225 -12.115  19.478  0.00  0.00    -0.287 OA
ENDBRANCH   8  11
ENDBRANCH   1   8
TORSDOF 4
REMARK  Name = ../refined-set-2016/3cr5/3cr5_pocket.pdb
REMARK  92 active torsions:
REMARK  status: ('A' for Active; 'I' for Inactive)
REMARK    1  A    between atoms: _1  and  _3
REMARK    2  A    between atoms: _3  and  _4
REMARK    3  A    between atoms: _3  and  _6
REMARK    4  A    between atoms: _6  and  _7
REMARK    5  A    between atoms: _12  and  _14
REMARK    6  A    between atoms: _14  and  _15
REMARK    7  A    between atoms: _14  and  _17
REMARK    8  A    between atoms: _17  and  _18
REMARK    9  A    between atoms: _24  and  _26
REMARK   10  A    between atoms: _26  and  _27
REMARK   11  A    between atoms: _26  and  _29
REMARK   12  A    between atoms: _29  and  _30
REMARK   13  A    between atoms: _33  and  _35
REMARK   14  A    between atoms: _35  and  _36
REMARK   15  A    between atoms: _35  and  _38
REMARK   16  A    between atoms: _38  and  _39
REMARK   17  A    between atoms: _42  and  _44
REMARK   18  A    between atoms: _44  and  _45
REMARK   19  A    between atoms: _44  and  _47
REMARK   20  A    between atoms: _47  and  _48
REMARK   21  A    between atoms: _51  and  _53
REMARK   22  A    between atoms: _53  and  _54
REMARK   23  A    between atoms: _57  and  _59
REMARK   24  A    between atoms: _59  and  _60
REMARK   25  A    between atoms: _59  and  _62
REMARK   26  A    between atoms: _64  and  _66
REMARK   27  A    between atoms: _77  and  _80
REMARK   28  A    between atoms: _80  and  _81
REMARK   29  A    between atoms: _81  and  _82
REMARK   30  A    between atoms: _87  and  _90
REMARK   31  A    between atoms: _90  and  _91
REMARK   32  A    between atoms: _99  and  _102
REMARK   33  A    between atoms: _102  and  _103
REMARK   34  A    between atoms: _111  and  _112
REMARK   35  A    between atoms: _119  and  _123
REMARK   36  A    between atoms: _123  and  _124
REMARK   37  A    between atoms: _123  and  _126
REMARK   38  A    between atoms: _126  and  _127
REMARK   39  A    between atoms: _127  and  _128
REMARK   40  A    between atoms: _130  and  _132
REMARK   41  A    between atoms: _132  and  _133
REMARK   42  A    between atoms: _132  and  _135
REMARK   43  A    between atoms: _135  and  _136
REMARK   44  A    between atoms: _136  and  _137
REMARK   45  A    between atoms: _140  and  _142
REMARK   46  A    between atoms: _142  and  _143
REMARK   47  A    between atoms: _142  and  _145
REMARK   48  A    between atoms: _145  and  _146
REMARK   49  A    between atoms: _146  and  _147
REMARK   50  A    between atoms: _147  and  _148
REMARK   51  A    between atoms: _148  and  _149
REMARK   52  A    between atoms: _153  and  _155
REMARK   53  A    between atoms: _155  and  _156
REMARK   54  A    between atoms: _155  and  _158
REMARK   55  A    between atoms: _161  and  _163
REMARK   56  A    between atoms: _163  and  _164
REMARK   57  A    between atoms: _163  and  _166
REMARK   58  A    between atoms: _169  and  _171
REMARK   59  A    between atoms: _171  and  _172
REMARK   60  A    between atoms: _175  and  _177
REMARK   61  A    between atoms: _177  and  _178
REMARK   62  A    between atoms: _177  and  _180
REMARK   63  A    between atoms: _180  and  _181
REMARK   64  A    between atoms: _184  and  _186
REMARK   65  A    between atoms: _186  and  _187
REMARK   66  A    between atoms: _186  and  _189
REMARK   67  A    between atoms: _189  and  _190
REMARK   68  A    between atoms: _193  and  _195
REMARK   69  A    between atoms: _195  and  _196
REMARK   70  A    between atoms: _195  and  _198
REMARK   71  A    between atoms: _198  and  _199
REMARK   72  A    between atoms: _202  and  _204
REMARK   73  A    between atoms: _204  and  _205
REMARK   74  A    between atoms: _204  and  _207
REMARK   75  A    between atoms: _210  and  _212
REMARK   76  A    between atoms: _212  and  _213
REMARK   77  A    between atoms: _212  and  _215
REMARK   78  A    between atoms: _215  and  _216
REMARK   79  A    between atoms: _222  and  _224
REMARK   80  A    between atoms: _224  and  _225
REMARK   81  A    between atoms: _224  and  _227
REMARK   82  A    between atoms: _227  and  _228
REMARK   83  A    between atoms: _232  and  ZN_257
REMARK   84  A    between atoms: _233  and  _235
REMARK   85  A    between atoms: _235  and  _236
REMARK   86  A    between atoms: _235  and  _238
REMARK   87  A    between atoms: _238  and  _239
REMARK   88  A    between atoms: _239  and  _240
REMARK   89  A    between atoms: _245  and  _247
REMARK   90  A    between atoms: _247  and  _248
REMARK   91  A    between atoms: _247  and  _250
REMARK   92  A    between atoms: _250  and  _251
REMARK                            x       y       z     vdW  Elec       q    Type
REMARK                         _______ _______ _______ _____ _____    ______ ____
ROOT
ATOM      1  O   HOH     1       3.850  -3.439  26.851  0.00  0.00    +0.000 OA
ENDROOT
TORSDOF 0
REMARK  Name = ../refined-set-2016/3cr5/3cr5_pocket.pdb
REMARK  92 active torsions:
REMARK  status: ('A' for Active; 'I' for Inactive)
REMARK    1  A    between atoms: _1  and  _3
REMARK    2  A    between atoms: _3  and  _4
REMARK    3  A    between atoms: _3  and  _6
REMARK    4  A    between atoms: _6  and  _7
REMARK    5  A    between atoms: _12  and  _14
REMARK    6  A    between atoms: _14  and  _15
REMARK    7  A    between atoms: _14  and  _17
REMARK    8  A    between atoms: _17  and  _18
REMARK    9  A    between atoms: _24  and  _26
REMARK   10  A    between atoms: _26  and  _27
REMARK   11  A    between atoms: _26  and  _29
REMARK   12  A    between atoms: _29  and  _30
REMARK   13  A    between atoms: _33  and  _35
REMARK   14  A    between atoms: _35  and  _36
REMARK   15  A    between atoms: _35  and  _38
REMARK   16  A    between atoms: _38  and  _39
REMARK   17  A    between atoms: _42  and  _44
REMARK   18  A    between atoms: _44  and  _45
REMARK   19  A    between atoms: _44  and  _47
REMARK   20  A    between atoms: _47  and  _48
REMARK   21  A    between atoms: _51  and  _53
REMARK   22  A    between atoms: _53  and  _54
REMARK   23  A    between atoms: _57  and  _59
REMARK   24  A    between atoms: _59  and  _60
REMARK   25  A    between atoms: _59  and  _62
REMARK   26  A    between atoms: _64  and  _66
REMARK   27  A    between atoms: _77  and  _80
REMARK   28  A    between atoms: _80  and  _81
REMARK   29  A    between atoms: _81  and  _82
REMARK   30  A    between atoms: _87  and  _90
REMARK   31  A    between atoms: _90  and  _91
REMARK   32  A    between atoms: _99  and  _102
REMARK   33  A    between atoms: _102  and  _103
REMARK   34  A    between atoms: _111  and  _112
REMARK   35  A    between atoms: _119  and  _123
REMARK   36  A    between atoms: _123  and  _124
REMARK   37  A    between atoms: _123  and  _126
REMARK   38  A    between atoms: _126  and  _127
REMARK   39  A    between atoms: _127  and  _128
REMARK   40  A    between atoms: _130  and  _132
REMARK   41  A    between atoms: _132  and  _133
REMARK   42  A    between atoms: _132  and  _135
REMARK   43  A    between atoms: _135  and  _136
REMARK   44  A    between atoms: _136  and  _137
REMARK   45  A    between atoms: _140  and  _142
REMARK   46  A    between atoms: _142  and  _143
REMARK   47  A    between atoms: _142  and  _145
REMARK   48  A    between atoms: _145  and  _146
REMARK   49  A    between atoms: _146  and  _147
REMARK   50  A    between atoms: _147  and  _148
REMARK   51  A    between atoms: _148  and  _149
REMARK   52  A    between atoms: _153  and  _155
REMARK   53  A    between atoms: _155  and  _156
REMARK   54  A    between atoms: _155  and  _158
REMARK   55  A    between atoms: _161  and  _163
REMARK   56  A    between atoms: _163  and  _164
REMARK   57  A    between atoms: _163  and  _166
REMARK   58  A    between atoms: _169  and  _171
REMARK   59  A    between atoms: _171  and  _172
REMARK   60  A    between atoms: _175  and  _177
REMARK   61  A    between atoms: _177  and  _178
REMARK   62  A    between atoms: _177  and  _180
REMARK   63  A    between atoms: _180  and  _181
REMARK   64  A    between atoms: _184  and  _186
REMARK   65  A    between atoms: _186  and  _187
REMARK   66  A    between atoms: _186  and  _189
REMARK   67  A    between atoms: _189  and  _190
REMARK   68  A    between atoms: _193  and  _195
REMARK   69  A    between atoms: _195  and  _196
REMARK   70  A    between atoms: _195  and  _198
REMARK   71  A    between atoms: _198  and  _199
REMARK   72  A    between atoms: _202  and  _204
REMARK   73  A    between atoms: _204  and  _205
REMARK   74  A    between atoms: _204  and  _207
REMARK   75  A    between atoms: _210  and  _212
REMARK   76  A    between atoms: _212  and  _213
REMARK   77  A    between atoms: _212  and  _215
REMARK   78  A    between atoms: _215  and  _216
REMARK   79  A    between atoms: _222  and  _224
REMARK   80  A    between atoms: _224  and  _225
REMARK   81  A    between atoms: _224  and  _227
REMARK   82  A    between atoms: _227  and  _228
REMARK   83  A    between atoms: _232  and  ZN_257
REMARK   84  A    between atoms: _233  and  _235
REMARK   85  A    between atoms: _235  and  _236
REMARK   86  A    between atoms: _235  and  _238
REMARK   87  A    between atoms: _238  and  _239
REMARK   88  A    between atoms: _239  and  _240
REMARK   89  A    between atoms: _245  and  _247
REMARK   90  A    between atoms: _247  and  _248
REMARK   91  A    between atoms: _247  and  _250
REMARK   92  A    between atoms: _250  and  _251
REMARK                            x       y       z     vdW  Elec       q    Type
REMARK                         _______ _______ _______ _____ _____    ______ ____
ROOT
ATOM      1  O   HOH     1       2.400  -1.614  32.161  0.00  0.00    +0.000 OA
ENDROOT
TORSDOF 0
REMARK  Name = ../refined-set-2016/3cr5/3cr5_pocket.pdb
REMARK  92 active torsions:
REMARK  status: ('A' for Active; 'I' for Inactive)
REMARK    1  A    between atoms: _1  and  _3
REMARK    2  A    between atoms: _3  and  _4
REMARK    3  A    between atoms: _3  and  _6
REMARK    4  A    between atoms: _6  and  _7
REMARK    5  A    between atoms: _12  and  _14
REMARK    6  A    between atoms: _14  and  _15
REMARK    7  A    between atoms: _14  and  _17
REMARK    8  A    between atoms: _17  and  _18
REMARK    9  A    between atoms: _24  and  _26
REMARK   10  A    between atoms: _26  and  _27
REMARK   11  A    between atoms: _26  and  _29
REMARK   12  A    between atoms: _29  and  _30
REMARK   13  A    between atoms: _33  and  _35
REMARK   14  A    between atoms: _35  and  _36
REMARK   15  A    between atoms: _35  and  _38
REMARK   16  A    between atoms: _38  and  _39
REMARK   17  A    between atoms: _42  and  _44
REMARK   18  A    between atoms: _44  and  _45
REMARK   19  A    between atoms: _44  and  _47
REMARK   20  A    between atoms: _47  and  _48
REMARK   21  A    between atoms: _51  and  _53
REMARK   22  A    between atoms: _53  and  _54
REMARK   23  A    between atoms: _57  and  _59
REMARK   24  A    between atoms: _59  and  _60
REMARK   25  A    between atoms: _59  and  _62
REMARK   26  A    between atoms: _64  and  _66
REMARK   27  A    between atoms: _77  and  _80
REMARK   28  A    between atoms: _80  and  _81
REMARK   29  A    between atoms: _81  and  _82
REMARK   30  A    between atoms: _87  and  _90
REMARK   31  A    between atoms: _90  and  _91
REMARK   32  A    between atoms: _99  and  _102
REMARK   33  A    between atoms: _102  and  _103
REMARK   34  A    between atoms: _111  and  _112
REMARK   35  A    between atoms: _119  and  _123
REMARK   36  A    between atoms: _123  and  _124
REMARK   37  A    between atoms: _123  and  _126
REMARK   38  A    between atoms: _126  and  _127
REMARK   39  A    between atoms: _127  and  _128
REMARK   40  A    between atoms: _130  and  _132
REMARK   41  A    between atoms: _132  and  _133
REMARK   42  A    between atoms: _132  and  _135
REMARK   43  A    between atoms: _135  and  _136
REMARK   44  A    between atoms: _136  and  _137
REMARK   45  A    between atoms: _140  and  _142
REMARK   46  A    between atoms: _142  and  _143
REMARK   47  A    between atoms: _142  and  _145
REMARK   48  A    between atoms: _145  and  _146
REMARK   49  A    between atoms: _146  and  _147
REMARK   50  A    between atoms: _147  and  _148
REMARK   51  A    between atoms: _148  and  _149
REMARK   52  A    between atoms: _153  and  _155
REMARK   53  A    between atoms: _155  and  _156
REMARK   54  A    between atoms: _155  and  _158
REMARK   55  A    between atoms: _161  and  _163
REMARK   56  A    between atoms: _163  and  _164
REMARK   57  A    between atoms: _163  and  _166
REMARK   58  A    between atoms: _169  and  _171
REMARK   59  A    between atoms: _171  and  _172
REMARK   60  A    between atoms: _175  and  _177
REMARK   61  A    between atoms: _177  and  _178
REMARK   62  A    between atoms: _177  and  _180
REMARK   63  A    between atoms: _180  and  _181
REMARK   64  A    between atoms: _184  and  _186
REMARK   65  A    between atoms: _186  and  _187
REMARK   66  A    between atoms: _186  and  _189
REMARK   67  A    between atoms: _189  and  _190
REMARK   68  A    between atoms: _193  and  _195
REMARK   69  A    between atoms: _195  and  _196
REMARK   70  A    between atoms: _195  and  _198
REMARK   71  A    between atoms: _198  and  _199
REMARK   72  A    between atoms: _202  and  _204
REMARK   73  A    between atoms: _204  and  _205
REMARK   74  A    between atoms: _204  and  _207
REMARK   75  A    between atoms: _210  and  _212
REMARK   76  A    between atoms: _212  and  _213
REMARK   77  A    between atoms: _212  and  _215
REMARK   78  A    between atoms: _215  and  _216
REMARK   79  A    between atoms: _222  and  _224
REMARK   80  A    between atoms: _224  and  _225
REMARK   81  A    between atoms: _224  and  _227
REMARK   82  A    between atoms: _227  and  _228
REMARK   83  A    between atoms: _232  and  ZN_257
REMARK   84  A    between atoms: _233  and  _235
REMARK   85  A    between atoms: _235  and  _236
REMARK   86  A    between atoms: _235  and  _238
REMARK   87  A    between atoms: _238  and  _239
REMARK   88  A    between atoms: _239  and  _240
REMARK   89  A    between atoms: _245  and  _247
REMARK   90  A    between atoms: _247  and  _248
REMARK   91  A    between atoms: _247  and  _250
REMARK   92  A    between atoms: _250  and  _251
REMARK                            x       y       z     vdW  Elec       q    Type
REMARK                         _______ _______ _______ _____ _____    ______ ____
ROOT
ATOM      1  O   HOH     1      -4.346  -3.335  17.638  0.00  0.00    +0.000 OA
ENDROOT
TORSDOF 0
REMARK  Name = ../refined-set-2016/3cr5/3cr5_pocket.pdb
REMARK  92 active torsions:
REMARK  status: ('A' for Active; 'I' for Inactive)
REMARK    1  A    between atoms: _1  and  _3
REMARK    2  A    between atoms: _3  and  _4
REMARK    3  A    between atoms: _3  and  _6
REMARK    4  A    between atoms: _6  and  _7
REMARK    5  A    between atoms: _12  and  _14
REMARK    6  A    between atoms: _14  and  _15
REMARK    7  A    between atoms: _14  and  _17
REMARK    8  A    between atoms: _17  and  _18
REMARK    9  A    between atoms: _24  and  _26
REMARK   10  A    between atoms: _26  and  _27
REMARK   11  A    between atoms: _26  and  _29
REMARK   12  A    between atoms: _29  and  _30
REMARK   13  A    between atoms: _33  and  _35
REMARK   14  A    between atoms: _35  and  _36
REMARK   15  A    between atoms: _35  and  _38
REMARK   16  A    between atoms: _38  and  _39
REMARK   17  A    between atoms: _42  and  _44
REMARK   18  A    between atoms: _44  and  _45
REMARK   19  A    between atoms: _44  and  _47
REMARK   20  A    between atoms: _47  and  _48
REMARK   21  A    between atoms: _51  and  _53
REMARK   22  A    between atoms: _53  and  _54
REMARK   23  A    between atoms: _57  and  _59
REMARK   24  A    between atoms: _59  and  _60
REMARK   25  A    between atoms: _59  and  _62
REMARK   26  A    between atoms: _64  and  _66
REMARK   27  A    between atoms: _77  and  _80
REMARK   28  A    between atoms: _80  and  _81
REMARK   29  A    between atoms: _81  and  _82
REMARK   30  A    between atoms: _87  and  _90
REMARK   31  A    between atoms: _90  and  _91
REMARK   32  A    between atoms: _99  and  _102
REMARK   33  A    between atoms: _102  and  _103
REMARK   34  A    between atoms: _111  and  _112
REMARK   35  A    between atoms: _119  and  _123
REMARK   36  A    between atoms: _123  and  _124
REMARK   37  A    between atoms: _123  and  _126
REMARK   38  A    between atoms: _126  and  _127
REMARK   39  A    between atoms: _127  and  _128
REMARK   40  A    between atoms: _130  and  _132
REMARK   41  A    between atoms: _132  and  _133
REMARK   42  A    between atoms: _132  and  _135
REMARK   43  A    between atoms: _135  and  _136
REMARK   44  A    between atoms: _136  and  _137
REMARK   45  A    between atoms: _140  and  _142
REMARK   46  A    between atoms: _142  and  _143
REMARK   47  A    between atoms: _142  and  _145
REMARK   48  A    between atoms: _145  and  _146
REMARK   49  A    between atoms: _146  and  _147
REMARK   50  A    between atoms: _147  and  _148
REMARK   51  A    between atoms: _148  and  _149
REMARK   52  A    between atoms: _153  and  _155
REMARK   53  A    between atoms: _155  and  _156
REMARK   54  A    between atoms: _155  and  _158
REMARK   55  A    between atoms: _161  and  _163
REMARK   56  A    between atoms: _163  and  _164
REMARK   57  A    between atoms: _163  and  _166
REMARK   58  A    between atoms: _169  and  _171
REMARK   59  A    between atoms: _171  and  _172
REMARK   60  A    between atoms: _175  and  _177
REMARK   61  A    between atoms: _177  and  _178
REMARK   62  A    between atoms: _177  and  _180
REMARK   63  A    between atoms: _180  and  _181
REMARK   64  A    between atoms: _184  and  _186
REMARK   65  A    between atoms: _186  and  _187
REMARK   66  A    between atoms: _186  and  _189
REMARK   67  A    between atoms: _189  and  _190
REMARK   68  A    between atoms: _193  and  _195
REMARK   69  A    between atoms: _195  and  _196
REMARK   70  A    between atoms: _195  and  _198
REMARK   71  A    between atoms: _198  and  _199
REMARK   72  A    between atoms: _202  and  _204
REMARK   73  A    between atoms: _204  and  _205
REMARK   74  A    between atoms: _204  and  _207
REMARK   75  A    between atoms: _210  and  _212
REMARK   76  A    between atoms: _212  and  _213
REMARK   77  A    between atoms: _212  and  _215
REMARK   78  A    between atoms: _215  and  _216
REMARK   79  A    between atoms: _222  and  _224
REMARK   80  A    between atoms: _224  and  _225
REMARK   81  A    between atoms: _224  and  _227
REMARK   82  A    between atoms: _227  and  _228
REMARK   83  A    between atoms: _232  and  ZN_257
REMARK   84  A    between atoms: _233  and  _235
REMARK   85  A    between atoms: _235  and  _236
REMARK   86  A    between atoms: _235  and  _238
REMARK   87  A    between atoms: _238  and  _239
REMARK   88  A    between atoms: _239  and  _240
REMARK   89  A    between atoms: _245  and  _247
REMARK   90  A    between atoms: _247  and  _248
REMARK   91  A    between atoms: _247  and  _250
REMARK   92  A    between atoms: _250  and  _251
REMARK                            x       y       z     vdW  Elec       q    Type
REMARK                         _______ _______ _______ _____ _____    ______ ____
ROOT
ATOM      1  O   HOH     1      -1.573  -3.883  24.962  0.00  0.00    +0.000 OA
ENDROOT
TORSDOF 0
REMARK  Name = ../refined-set-2016/3cr5/3cr5_pocket.pdb
REMARK  92 active torsions:
REMARK  status: ('A' for Active; 'I' for Inactive)
REMARK    1  A    between atoms: _1  and  _3
REMARK    2  A    between atoms: _3  and  _4
REMARK    3  A    between atoms: _3  and  _6
REMARK    4  A    between atoms: _6  and  _7
REMARK    5  A    between atoms: _12  and  _14
REMARK    6  A    between atoms: _14  and  _15
REMARK    7  A    between atoms: _14  and  _17
REMARK    8  A    between atoms: _17  and  _18
REMARK    9  A    between atoms: _24  and  _26
REMARK   10  A    between atoms: _26  and  _27
REMARK   11  A    between atoms: _26  and  _29
REMARK   12  A    between atoms: _29  and  _30
REMARK   13  A    between atoms: _33  and  _35
REMARK   14  A    between atoms: _35  and  _36
REMARK   15  A    between atoms: _35  and  _38
REMARK   16  A    between atoms: _38  and  _39
REMARK   17  A    between atoms: _42  and  _44
REMARK   18  A    between atoms: _44  and  _45
REMARK   19  A    between atoms: _44  and  _47
REMARK   20  A    between atoms: _47  and  _48
REMARK   21  A    between atoms: _51  and  _53
REMARK   22  A    between atoms: _53  and  _54
REMARK   23  A    between atoms: _57  and  _59
REMARK   24  A    between atoms: _59  and  _60
REMARK   25  A    between atoms: _59  and  _62
REMARK   26  A    between atoms: _64  and  _66
REMARK   27  A    between atoms: _77  and  _80
REMARK   28  A    between atoms: _80  and  _81
REMARK   29  A    between atoms: _81  and  _82
REMARK   30  A    between atoms: _87  and  _90
REMARK   31  A    between atoms: _90  and  _91
REMARK   32  A    between atoms: _99  and  _102
REMARK   33  A    between atoms: _102  and  _103
REMARK   34  A    between atoms: _111  and  _112
REMARK   35  A    between atoms: _119  and  _123
REMARK   36  A    between atoms: _123  and  _124
REMARK   37  A    between atoms: _123  and  _126
REMARK   38  A    between atoms: _126  and  _127
REMARK   39  A    between atoms: _127  and  _128
REMARK   40  A    between atoms: _130  and  _132
REMARK   41  A    between atoms: _132  and  _133
REMARK   42  A    between atoms: _132  and  _135
REMARK   43  A    between atoms: _135  and  _136
REMARK   44  A    between atoms: _136  and  _137
REMARK   45  A    between atoms: _140  and  _142
REMARK   46  A    between atoms: _142  and  _143
REMARK   47  A    between atoms: _142  and  _145
REMARK   48  A    between atoms: _145  and  _146
REMARK   49  A    between atoms: _146  and  _147
REMARK   50  A    between atoms: _147  and  _148
REMARK   51  A    between atoms: _148  and  _149
REMARK   52  A    between atoms: _153  and  _155
REMARK   53  A    between atoms: _155  and  _156
REMARK   54  A    between atoms: _155  and  _158
REMARK   55  A    between atoms: _161  and  _163
REMARK   56  A    between atoms: _163  and  _164
REMARK   57  A    between atoms: _163  and  _166
REMARK   58  A    between atoms: _169  and  _171
REMARK   59  A    between atoms: _171  and  _172
REMARK   60  A    between atoms: _175  and  _177
REMARK   61  A    between atoms: _177  and  _178
REMARK   62  A    between atoms: _177  and  _180
REMARK   63  A    between atoms: _180  and  _181
REMARK   64  A    between atoms: _184  and  _186
REMARK   65  A    between atoms: _186  and  _187
REMARK   66  A    between atoms: _186  and  _189
REMARK   67  A    between atoms: _189  and  _190
REMARK   68  A    between atoms: _193  and  _195
REMARK   69  A    between atoms: _195  and  _196
REMARK   70  A    between atoms: _195  and  _198
REMARK   71  A    between atoms: _198  and  _199
REMARK   72  A    between atoms: _202  and  _204
REMARK   73  A    between atoms: _204  and  _205
REMARK   74  A    between atoms: _204  and  _207
REMARK   75  A    between atoms: _210  and  _212
REMARK   76  A    between atoms: _212  and  _213
REMARK   77  A    between atoms: _212  and  _215
REMARK   78  A    between atoms: _215  and  _216
REMARK   79  A    between atoms: _222  and  _224
REMARK   80  A    between atoms: _224  and  _225
REMARK   81  A    between atoms: _224  and  _227
REMARK   82  A    between atoms: _227  and  _228
REMARK   83  A    between atoms: _232  and  ZN_257
REMARK   84  A    between atoms: _233  and  _235
REMARK   85  A    between atoms: _235  and  _236
REMARK   86  A    between atoms: _235  and  _238
REMARK   87  A    between atoms: _238  and  _239
REMARK   88  A    between atoms: _239  and  _240
REMARK   89  A    between atoms: _245  and  _247
REMARK   90  A    between atoms: _247  and  _248
REMARK   91  A    between atoms: _247  and  _250
REMARK   92  A    between atoms: _250  and  _251
REMARK                            x       y       z     vdW  Elec       q    Type
REMARK                         _______ _______ _______ _____ _____    ______ ____
ROOT
ATOM      1  O   HOH     1      -4.684  -0.634  18.021  0.00  0.00    +0.000 OA
ENDROOT
TORSDOF 0
REMARK  Name = ../refined-set-2016/3cr5/3cr5_pocket.pdb
REMARK  92 active torsions:
REMARK  status: ('A' for Active; 'I' for Inactive)
REMARK    1  A    between atoms: _1  and  _3
REMARK    2  A    between atoms: _3  and  _4
REMARK    3  A    between atoms: _3  and  _6
REMARK    4  A    between atoms: _6  and  _7
REMARK    5  A    between atoms: _12  and  _14
REMARK    6  A    between atoms: _14  and  _15
REMARK    7  A    between atoms: _14  and  _17
REMARK    8  A    between atoms: _17  and  _18
REMARK    9  A    between atoms: _24  and  _26
REMARK   10  A    between atoms: _26  and  _27
REMARK   11  A    between atoms: _26  and  _29
REMARK   12  A    between atoms: _29  and  _30
REMARK   13  A    between atoms: _33  and  _35
REMARK   14  A    between atoms: _35  and  _36
REMARK   15  A    between atoms: _35  and  _38
REMARK   16  A    between atoms: _38  and  _39
REMARK   17  A    between atoms: _42  and  _44
REMARK   18  A    between atoms: _44  and  _45
REMARK   19  A    between atoms: _44  and  _47
REMARK   20  A    between atoms: _47  and  _48
REMARK   21  A    between atoms: _51  and  _53
REMARK   22  A    between atoms: _53  and  _54
REMARK   23  A    between atoms: _57  and  _59
REMARK   24  A    between atoms: _59  and  _60
REMARK   25  A    between atoms: _59  and  _62
REMARK   26  A    between atoms: _64  and  _66
REMARK   27  A    between atoms: _77  and  _80
REMARK   28  A    between atoms: _80  and  _81
REMARK   29  A    between atoms: _81  and  _82
REMARK   30  A    between atoms: _87  and  _90
REMARK   31  A    between atoms: _90  and  _91
REMARK   32  A    between atoms: _99  and  _102
REMARK   33  A    between atoms: _102  and  _103
REMARK   34  A    between atoms: _111  and  _112
REMARK   35  A    between atoms: _119  and  _123
REMARK   36  A    between atoms: _123  and  _124
REMARK   37  A    between atoms: _123  and  _126
REMARK   38  A    between atoms: _126  and  _127
REMARK   39  A    between atoms: _127  and  _128
REMARK   40  A    between atoms: _130  and  _132
REMARK   41  A    between atoms: _132  and  _133
REMARK   42  A    between atoms: _132  and  _135
REMARK   43  A    between atoms: _135  and  _136
REMARK   44  A    between atoms: _136  and  _137
REMARK   45  A    between atoms: _140  and  _142
REMARK   46  A    between atoms: _142  and  _143
REMARK   47  A    between atoms: _142  and  _145
REMARK   48  A    between atoms: _145  and  _146
REMARK   49  A    between atoms: _146  and  _147
REMARK   50  A    between atoms: _147  and  _148
REMARK   51  A    between atoms: _148  and  _149
REMARK   52  A    between atoms: _153  and  _155
REMARK   53  A    between atoms: _155  and  _156
REMARK   54  A    between atoms: _155  and  _158
REMARK   55  A    between atoms: _161  and  _163
REMARK   56  A    between atoms: _163  and  _164
REMARK   57  A    between atoms: _163  and  _166
REMARK   58  A    between atoms: _169  and  _171
REMARK   59  A    between atoms: _171  and  _172
REMARK   60  A    between atoms: _175  and  _177
REMARK   61  A    between atoms: _177  and  _178
REMARK   62  A    between atoms: _177  and  _180
REMARK   63  A    between atoms: _180  and  _181
REMARK   64  A    between atoms: _184  and  _186
REMARK   65  A    between atoms: _186  and  _187
REMARK   66  A    between atoms: _186  and  _189
REMARK   67  A    between atoms: _189  and  _190
REMARK   68  A    between atoms: _193  and  _195
REMARK   69  A    between atoms: _195  and  _196
REMARK   70  A    between atoms: _195  and  _198
REMARK   71  A    between atoms: _198  and  _199
REMARK   72  A    between atoms: _202  and  _204
REMARK   73  A    between atoms: _204  and  _205
REMARK   74  A    between atoms: _204  and  _207
REMARK   75  A    between atoms: _210  and  _212
REMARK   76  A    between atoms: _212  and  _213
REMARK   77  A    between atoms: _212  and  _215
REMARK   78  A    between atoms: _215  and  _216
REMARK   79  A    between atoms: _222  and  _224
REMARK   80  A    between atoms: _224  and  _225
REMARK   81  A    between atoms: _224  and  _227
REMARK   82  A    between atoms: _227  and  _228
REMARK   83  A    between atoms: _232  and  ZN_257
REMARK   84  A    between atoms: _233  and  _235
REMARK   85  A    between atoms: _235  and  _236
REMARK   86  A    between atoms: _235  and  _238
REMARK   87  A    between atoms: _238  and  _239
REMARK   88  A    between atoms: _239  and  _240
REMARK   89  A    between atoms: _245  and  _247
REMARK   90  A    between atoms: _247  and  _248
REMARK   91  A    between atoms: _247  and  _250
REMARK   92  A    between atoms: _250  and  _251
REMARK                            x       y       z     vdW  Elec       q    Type
REMARK                         _______ _______ _______ _____ _____    ______ ____
ROOT
ATOM      1  O   HOH     1      -2.920   0.516  19.403  0.00  0.00    +0.000 OA
ENDROOT
TORSDOF 0
REMARK  Name = ../refined-set-2016/3cr5/3cr5_pocket.pdb
REMARK  92 active torsions:
REMARK  status: ('A' for Active; 'I' for Inactive)
REMARK    1  A    between atoms: _1  and  _3
REMARK    2  A    between atoms: _3  and  _4
REMARK    3  A    between atoms: _3  and  _6
REMARK    4  A    between atoms: _6  and  _7
REMARK    5  A    between atoms: _12  and  _14
REMARK    6  A    between atoms: _14  and  _15
REMARK    7  A    between atoms: _14  and  _17
REMARK    8  A    between atoms: _17  and  _18
REMARK    9  A    between atoms: _24  and  _26
REMARK   10  A    between atoms: _26  and  _27
REMARK   11  A    between atoms: _26  and  _29
REMARK   12  A    between atoms: _29  and  _30
REMARK   13  A    between atoms: _33  and  _35
REMARK   14  A    between atoms: _35  and  _36
REMARK   15  A    between atoms: _35  and  _38
REMARK   16  A    between atoms: _38  and  _39
REMARK   17  A    between atoms: _42  and  _44
REMARK   18  A    between atoms: _44  and  _45
REMARK   19  A    between atoms: _44  and  _47
REMARK   20  A    between atoms: _47  and  _48
REMARK   21  A    between atoms: _51  and  _53
REMARK   22  A    between atoms: _53  and  _54
REMARK   23  A    between atoms: _57  and  _59
REMARK   24  A    between atoms: _59  and  _60
REMARK   25  A    between atoms: _59  and  _62
REMARK   26  A    between atoms: _64  and  _66
REMARK   27  A    between atoms: _77  and  _80
REMARK   28  A    between atoms: _80  and  _81
REMARK   29  A    between atoms: _81  and  _82
REMARK   30  A    between atoms: _87  and  _90
REMARK   31  A    between atoms: _90  and  _91
REMARK   32  A    between atoms: _99  and  _102
REMARK   33  A    between atoms: _102  and  _103
REMARK   34  A    between atoms: _111  and  _112
REMARK   35  A    between atoms: _119  and  _123
REMARK   36  A    between atoms: _123  and  _124
REMARK   37  A    between atoms: _123  and  _126
REMARK   38  A    between atoms: _126  and  _127
REMARK   39  A    between atoms: _127  and  _128
REMARK   40  A    between atoms: _130  and  _132
REMARK   41  A    between atoms: _132  and  _133
REMARK   42  A    between atoms: _132  and  _135
REMARK   43  A    between atoms: _135  and  _136
REMARK   44  A    between atoms: _136  and  _137
REMARK   45  A    between atoms: _140  and  _142
REMARK   46  A    between atoms: _142  and  _143
REMARK   47  A    between atoms: _142  and  _145
REMARK   48  A    between atoms: _145  and  _146
REMARK   49  A    between atoms: _146  and  _147
REMARK   50  A    between atoms: _147  and  _148
REMARK   51  A    between atoms: _148  and  _149
REMARK   52  A    between atoms: _153  and  _155
REMARK   53  A    between atoms: _155  and  _156
REMARK   54  A    between atoms: _155  and  _158
REMARK   55  A    between atoms: _161  and  _163
REMARK   56  A    between atoms: _163  and  _164
REMARK   57  A    between atoms: _163  and  _166
REMARK   58  A    between atoms: _169  and  _171
REMARK   59  A    between atoms: _171  and  _172
REMARK   60  A    between atoms: _175  and  _177
REMARK   61  A    between atoms: _177  and  _178
REMARK   62  A    between atoms: _177  and  _180
REMARK   63  A    between atoms: _180  and  _181
REMARK   64  A    between atoms: _184  and  _186
REMARK   65  A    between atoms: _186  and  _187
REMARK   66  A    between atoms: _186  and  _189
REMARK   67  A    between atoms: _189  and  _190
REMARK   68  A    between atoms: _193  and  _195
REMARK   69  A    between atoms: _195  and  _196
REMARK   70  A    between atoms: _195  and  _198
REMARK   71  A    between atoms: _198  and  _199
REMARK   72  A    between atoms: _202  and  _204
REMARK   73  A    between atoms: _204  and  _205
REMARK   74  A    between atoms: _204  and  _207
REMARK   75  A    between atoms: _210  and  _212
REMARK   76  A    between atoms: _212  and  _213
REMARK   77  A    between atoms: _212  and  _215
REMARK   78  A    between atoms: _215  and  _216
REMARK   79  A    between atoms: _222  and  _224
REMARK   80  A    between atoms: _224  and  _225
REMARK   81  A    between atoms: _224  and  _227
REMARK   82  A    between atoms: _227  and  _228
REMARK   83  A    between atoms: _232  and  ZN_257
REMARK   84  A    between atoms: _233  and  _235
REMARK   85  A    between atoms: _235  and  _236
REMARK   86  A    between atoms: _235  and  _238
REMARK   87  A    between atoms: _238  and  _239
REMARK   88  A    between atoms: _239  and  _240
REMARK   89  A    between atoms: _245  and  _247
REMARK   90  A    between atoms: _247  and  _248
REMARK   91  A    between atoms: _247  and  _250
REMARK   92  A    between atoms: _250  and  _251
REMARK                            x       y       z     vdW  Elec       q    Type
REMARK                         _______ _______ _______ _____ _____    ______ ____
ROOT
ATOM      1  O   HOH     1      -6.454  -3.762  21.630  0.00  0.00    +0.000 OA
ENDROOT
TORSDOF 0
REMARK  Name = ../refined-set-2016/3cr5/3cr5_pocket.pdb
REMARK  92 active torsions:
REMARK  status: ('A' for Active; 'I' for Inactive)
REMARK    1  A    between atoms: _1  and  _3
REMARK    2  A    between atoms: _3  and  _4
REMARK    3  A    between atoms: _3  and  _6
REMARK    4  A    between atoms: _6  and  _7
REMARK    5  A    between atoms: _12  and  _14
REMARK    6  A    between atoms: _14  and  _15
REMARK    7  A    between atoms: _14  and  _17
REMARK    8  A    between atoms: _17  and  _18
REMARK    9  A    between atoms: _24  and  _26
REMARK   10  A    between atoms: _26  and  _27
REMARK   11  A    between atoms: _26  and  _29
REMARK   12  A    between atoms: _29  and  _30
REMARK   13  A    between atoms: _33  and  _35
REMARK   14  A    between atoms: _35  and  _36
REMARK   15  A    between atoms: _35  and  _38
REMARK   16  A    between atoms: _38  and  _39
REMARK   17  A    between atoms: _42  and  _44
REMARK   18  A    between atoms: _44  and  _45
REMARK   19  A    between atoms: _44  and  _47
REMARK   20  A    between atoms: _47  and  _48
REMARK   21  A    between atoms: _51  and  _53
REMARK   22  A    between atoms: _53  and  _54
REMARK   23  A    between atoms: _57  and  _59
REMARK   24  A    between atoms: _59  and  _60
REMARK   25  A    between atoms: _59  and  _62
REMARK   26  A    between atoms: _64  and  _66
REMARK   27  A    between atoms: _77  and  _80
REMARK   28  A    between atoms: _80  and  _81
REMARK   29  A    between atoms: _81  and  _82
REMARK   30  A    between atoms: _87  and  _90
REMARK   31  A    between atoms: _90  and  _91
REMARK   32  A    between atoms: _99  and  _102
REMARK   33  A    between atoms: _102  and  _103
REMARK   34  A    between atoms: _111  and  _112
REMARK   35  A    between atoms: _119  and  _123
REMARK   36  A    between atoms: _123  and  _124
REMARK   37  A    between atoms: _123  and  _126
REMARK   38  A    between atoms: _126  and  _127
REMARK   39  A    between atoms: _127  and  _128
REMARK   40  A    between atoms: _130  and  _132
REMARK   41  A    between atoms: _132  and  _133
REMARK   42  A    between atoms: _132  and  _135
REMARK   43  A    between atoms: _135  and  _136
REMARK   44  A    between atoms: _136  and  _137
REMARK   45  A    between atoms: _140  and  _142
REMARK   46  A    between atoms: _142  and  _143
REMARK   47  A    between atoms: _142  and  _145
REMARK   48  A    between atoms: _145  and  _146
REMARK   49  A    between atoms: _146  and  _147
REMARK   50  A    between atoms: _147  and  _148
REMARK   51  A    between atoms: _148  and  _149
REMARK   52  A    between atoms: _153  and  _155
REMARK   53  A    between atoms: _155  and  _156
REMARK   54  A    between atoms: _155  and  _158
REMARK   55  A    between atoms: _161  and  _163
REMARK   56  A    between atoms: _163  and  _164
REMARK   57  A    between atoms: _163  and  _166
REMARK   58  A    between atoms: _169  and  _171
REMARK   59  A    between atoms: _171  and  _172
REMARK   60  A    between atoms: _175  and  _177
REMARK   61  A    between atoms: _177  and  _178
REMARK   62  A    between atoms: _177  and  _180
REMARK   63  A    between atoms: _180  and  _181
REMARK   64  A    between atoms: _184  and  _186
REMARK   65  A    between atoms: _186  and  _187
REMARK   66  A    between atoms: _186  and  _189
REMARK   67  A    between atoms: _189  and  _190
REMARK   68  A    between atoms: _193  and  _195
REMARK   69  A    between atoms: _195  and  _196
REMARK   70  A    between atoms: _195  and  _198
REMARK   71  A    between atoms: _198  and  _199
REMARK   72  A    between atoms: _202  and  _204
REMARK   73  A    between atoms: _204  and  _205
REMARK   74  A    between atoms: _204  and  _207
REMARK   75  A    between atoms: _210  and  _212
REMARK   76  A    between atoms: _212  and  _213
REMARK   77  A    between atoms: _212  and  _215
REMARK   78  A    between atoms: _215  and  _216
REMARK   79  A    between atoms: _222  and  _224
REMARK   80  A    between atoms: _224  and  _225
REMARK   81  A    between atoms: _224  and  _227
REMARK   82  A    between atoms: _227  and  _228
REMARK   83  A    between atoms: _232  and  ZN_257
REMARK   84  A    between atoms: _233  and  _235
REMARK   85  A    between atoms: _235  and  _236
REMARK   86  A    between atoms: _235  and  _238
REMARK   87  A    between atoms: _238  and  _239
REMARK   88  A    between atoms: _239  and  _240
REMARK   89  A    between atoms: _245  and  _247
REMARK   90  A    between atoms: _247  and  _248
REMARK   91  A    between atoms: _247  and  _250
REMARK   92  A    between atoms: _250  and  _251
REMARK                            x       y       z     vdW  Elec       q    Type
REMARK                         _______ _______ _______ _____ _____    ______ ____
ROOT
ATOM      1  O   HOH     1      -5.359  -4.773  23.743  0.00  0.00    +0.000 OA
ENDROOT
TORSDOF 0
