REMARK  Name = ../refined-set-2016/2gvj/2gvj_pocket.pdb
REMARK  262 active torsions:
REMARK  status: ('A' for Active; 'I' for Inactive)
REMARK    1  A    between atoms: _1  and  _3
REMARK    2  A    between atoms: _3  and  _4
REMARK    3  A    between atoms: _3  and  _6
REMARK    4  A    between atoms: _6  and  _7
REMARK    5  A    between atoms: _10  and  _12
REMARK    6  A    between atoms: _12  and  _13
REMARK    7  A    between atoms: _12  and  _15
REMARK    8  A    between atoms: _15  and  _16
REMARK    9  A    between atoms: _19  and  _21
REMARK   10  A    between atoms: _21  and  _22
REMARK   11  A    between atoms: _21  and  _24
REMARK   12  A    between atoms: _24  and  _25
REMARK   13  A    between atoms: _27  and  _29
REMARK   14  A    between atoms: _29  and  _30
REMARK   15  A    between atoms: _29  and  _32
REMARK   16  A    between atoms: _32  and  _33
REMARK   17  A    between atoms: _38  and  _39
REMARK   18  A    between atoms: _41  and  _43
REMARK   19  A    between atoms: _43  and  _44
REMARK   20  A    between atoms: _43  and  _46
REMARK   21  A    between atoms: _46  and  _47
REMARK   22  A    between atoms: _47  and  _48
REMARK   23  A    between atoms: _48  and  _49
REMARK   24  A    between atoms: _49  and  _50
REMARK   25  A    between atoms: _54  and  _56
REMARK   26  A    between atoms: _56  and  _57
REMARK   27  A    between atoms: _56  and  _59
REMARK   28  A    between atoms: _59  and  _60
REMARK   29  A    between atoms: _65  and  _67
REMARK   30  A    between atoms: _67  and  _68
REMARK   31  A    between atoms: _67  and  _70
REMARK   32  A    between atoms: _70  and  _71
REMARK   33  A    between atoms: _71  and  _72
REMARK   34  A    between atoms: _75  and  _77
REMARK   35  A    between atoms: _77  and  _78
REMARK   36  A    between atoms: _77  and  _80
REMARK   37  A    between atoms: _80  and  _81
REMARK   38  A    between atoms: _84  and  _86
REMARK   39  A    between atoms: _86  and  _87
REMARK   40  A    between atoms: _86  and  _89
REMARK   41  A    between atoms: _89  and  _90
REMARK   42  A    between atoms: _90  and  _91
REMARK   43  A    between atoms: _91  and  _92
REMARK   44  A    between atoms: _101  and  _103
REMARK   45  A    between atoms: _103  and  _104
REMARK   46  A    between atoms: _103  and  _106
REMARK   47  A    between atoms: _106  and  _107
REMARK   48  A    between atoms: _110  and  _112
REMARK   49  A    between atoms: _112  and  _113
REMARK   50  A    between atoms: _112  and  _115
REMARK   51  A    between atoms: _115  and  _116
REMARK   52  A    between atoms: _119  and  _121
REMARK   53  A    between atoms: _121  and  _122
REMARK   54  A    between atoms: _124  and  _126
REMARK   55  A    between atoms: _126  and  _127
REMARK   56  A    between atoms: _126  and  _129
REMARK   57  A    between atoms: _129  and  _130
REMARK   58  A    between atoms: _130  and  _131
REMARK   59  A    between atoms: _134  and  _136
REMARK   60  A    between atoms: _136  and  _137
REMARK   61  A    between atoms: _136  and  _139
REMARK   62  A    between atoms: _139  and  _140
REMARK   63  A    between atoms: _145  and  _146
REMARK   64  A    between atoms: _148  and  _150
REMARK   65  A    between atoms: _150  and  _151
REMARK   66  A    between atoms: _150  and  _153
REMARK   67  A    between atoms: _153  and  _154
REMARK   68  A    between atoms: _154  and  _155
REMARK   69  A    between atoms: _155  and  _156
REMARK   70  A    between atoms: _156  and  _157
REMARK   71  A    between atoms: _161  and  _163
REMARK   72  A    between atoms: _163  and  _164
REMARK   73  A    between atoms: _163  and  _166
REMARK   74  A    between atoms: _166  and  _167
REMARK   75  A    between atoms: _170  and  _172
REMARK   76  A    between atoms: _172  and  _173
REMARK   77  A    between atoms: _172  and  _175
REMARK   78  A    between atoms: _175  and  _176
REMARK   79  A    between atoms: _181  and  _183
REMARK   80  A    between atoms: _183  and  _184
REMARK   81  A    between atoms: _183  and  _186
REMARK   82  A    between atoms: _186  and  _187
REMARK   83  A    between atoms: _190  and  _192
REMARK   84  A    between atoms: _192  and  _193
REMARK   85  A    between atoms: _192  and  _195
REMARK   86  A    between atoms: _195  and  _196
REMARK   87  A    between atoms: _202  and  _204
REMARK   88  A    between atoms: _204  and  _205
REMARK   89  A    between atoms: _207  and  _209
REMARK   90  A    between atoms: _209  and  _210
REMARK   91  A    between atoms: _209  and  _212
REMARK   92  A    between atoms: _212  and  _213
REMARK   93  A    between atoms: _218  and  _219
REMARK   94  A    between atoms: _221  and  _223
REMARK   95  A    between atoms: _223  and  _224
REMARK   96  A    between atoms: _223  and  _226
REMARK   97  A    between atoms: _226  and  _227
REMARK   98  A    between atoms: _227  and  _228
REMARK   99  A    between atoms: _228  and  _229
REMARK  100  A    between atoms: _238  and  _240
REMARK  101  A    between atoms: _240  and  _241
REMARK  102  A    between atoms: _243  and  _245
REMARK  103  A    between atoms: _245  and  _246
REMARK  104  A    between atoms: _248  and  _250
REMARK  105  A    between atoms: _250  and  _251
REMARK  106  A    between atoms: _250  and  _253
REMARK  107  A    between atoms: _253  and  _254
REMARK  108  A    between atoms: _257  and  _259
REMARK  109  A    between atoms: _259  and  _260
REMARK  110  A    between atoms: _259  and  _262
REMARK  111  A    between atoms: _262  and  _263
REMARK  112  A    between atoms: _266  and  _268
REMARK  113  A    between atoms: _268  and  _269
REMARK  114  A    between atoms: _268  and  _271
REMARK  115  A    between atoms: _271  and  _272
REMARK  116  A    between atoms: _275  and  _277
REMARK  117  A    between atoms: _277  and  _278
REMARK  118  A    between atoms: _277  and  _280
REMARK  119  A    between atoms: _280  and  _281
REMARK  120  A    between atoms: _286  and  _287
REMARK  121  A    between atoms: _289  and  _291
REMARK  122  A    between atoms: _291  and  _292
REMARK  123  A    between atoms: _291  and  _294
REMARK  124  A    between atoms: _294  and  _295
REMARK  125  A    between atoms: _297  and  _299
REMARK  126  A    between atoms: _299  and  _300
REMARK  127  A    between atoms: _299  and  _302
REMARK  128  A    between atoms: _306  and  _307
REMARK  129  A    between atoms: _312  and  _314
REMARK  130  A    between atoms: _314  and  _315
REMARK  131  A    between atoms: _318  and  _320
REMARK  132  A    between atoms: _320  and  _321
REMARK  133  A    between atoms: _324  and  _326
REMARK  134  A    between atoms: _326  and  _327
REMARK  135  A    between atoms: _326  and  _329
REMARK  136  A    between atoms: _329  and  _330
REMARK  137  A    between atoms: _330  and  _331
REMARK  138  A    between atoms: _334  and  _336
REMARK  139  A    between atoms: _336  and  _337
REMARK  140  A    between atoms: _336  and  _339
REMARK  141  A    between atoms: _339  and  _340
REMARK  142  A    between atoms: _346  and  _347
REMARK  143  A    between atoms: _352  and  _354
REMARK  144  A    between atoms: _354  and  _355
REMARK  145  A    between atoms: _354  and  _357
REMARK  146  A    between atoms: _360  and  _362
REMARK  147  A    between atoms: _362  and  _363
REMARK  148  A    between atoms: _362  and  _365
REMARK  149  A    between atoms: _365  and  _366
REMARK  150  A    between atoms: _368  and  _370
REMARK  151  A    between atoms: _370  and  _371
REMARK  152  A    between atoms: _370  and  _373
REMARK  153  A    between atoms: _376  and  _378
REMARK  154  A    between atoms: _378  and  _379
REMARK  155  A    between atoms: _378  and  _381
REMARK  156  A    between atoms: _384  and  _386
REMARK  157  A    between atoms: _386  and  _387
REMARK  158  A    between atoms: _386  and  _389
REMARK  159  A    between atoms: _389  and  _390
REMARK  160  A    between atoms: _393  and  _395
REMARK  161  A    between atoms: _395  and  _396
REMARK  162  A    between atoms: _395  and  _398
REMARK  163  A    between atoms: _398  and  _399
REMARK  164  A    between atoms: _399  and  _400
REMARK  165  A    between atoms: _405  and  _407
REMARK  166  A    between atoms: _407  and  _408
REMARK  167  A    between atoms: _412  and  _413
REMARK  168  A    between atoms: _418  and  _420
REMARK  169  A    between atoms: _420  and  _421
REMARK  170  A    between atoms: _420  and  _423
REMARK  171  A    between atoms: _423  and  _424
REMARK  172  A    between atoms: _427  and  _429
REMARK  173  A    between atoms: _429  and  _430
REMARK  174  A    between atoms: _429  and  _432
REMARK  175  A    between atoms: _432  and  _433
REMARK  176  A    between atoms: _436  and  _438
REMARK  177  A    between atoms: _438  and  _439
REMARK  178  A    between atoms: _438  and  _441
REMARK  179  A    between atoms: _441  and  _442
REMARK  180  A    between atoms: _445  and  _447
REMARK  181  A    between atoms: _447  and  _448
REMARK  182  A    between atoms: _447  and  _450
REMARK  183  A    between atoms: _450  and  _451
REMARK  184  A    between atoms: _451  and  _452
REMARK  185  A    between atoms: _452  and  _453
REMARK  186  A    between atoms: _463  and  _464
REMARK  187  A    between atoms: _469  and  _471
REMARK  188  A    between atoms: _471  and  _472
REMARK  189  A    between atoms: _471  and  _474
REMARK  190  A    between atoms: _474  and  _475
REMARK  191  A    between atoms: _478  and  _480
REMARK  192  A    between atoms: _480  and  _481
REMARK  193  A    between atoms: _480  and  _483
REMARK  194  A    between atoms: _483  and  _484
REMARK  195  A    between atoms: _487  and  _489
REMARK  196  A    between atoms: _489  and  _490
REMARK  197  A    between atoms: _489  and  _492
REMARK  198  A    between atoms: _492  and  _493
REMARK  199  A    between atoms: _497  and  _498
REMARK  200  A    between atoms: _503  and  _505
REMARK  201  A    between atoms: _505  and  _506
REMARK  202  A    between atoms: _505  and  _508
REMARK  203  A    between atoms: _508  and  _509
REMARK  204  A    between atoms: _512  and  _514
REMARK  205  A    between atoms: _514  and  _515
REMARK  206  A    between atoms: _514  and  _517
REMARK  207  A    between atoms: _517  and  _518
REMARK  208  A    between atoms: _518  and  _519
REMARK  209  A    between atoms: _519  and  _520
REMARK  210  A    between atoms: _529  and  _531
REMARK  211  A    between atoms: _531  and  _532
REMARK  212  A    between atoms: _531  and  _534
REMARK  213  A    between atoms: _537  and  _539
REMARK  214  A    between atoms: _539  and  _540
REMARK  215  A    between atoms: _539  and  _542
REMARK  216  A    between atoms: _542  and  _543
REMARK  217  A    between atoms: _546  and  _548
REMARK  218  A    between atoms: _548  and  _549
REMARK  219  A    between atoms: _548  and  _551
REMARK  220  A    between atoms: _551  and  _552
REMARK  221  A    between atoms: _552  and  _553
REMARK  222  A    between atoms: _558  and  _560
REMARK  223  A    between atoms: _560  and  _561
REMARK  224  A    between atoms: _563  and  _565
REMARK  225  A    between atoms: _565  and  _566
REMARK  226  A    between atoms: _565  and  _568
REMARK  227  A    between atoms: _568  and  _569
REMARK  228  A    between atoms: _572  and  _574
REMARK  229  A    between atoms: _574  and  _575
REMARK  230  A    between atoms: _574  and  _577
REMARK  231  A    between atoms: _577  and  _578
REMARK  232  A    between atoms: _580  and  _582
REMARK  233  A    between atoms: _582  and  _583
REMARK  234  A    between atoms: _582  and  _585
REMARK  235  A    between atoms: _585  and  _586
REMARK  236  A    between atoms: _589  and  _591
REMARK  237  A    between atoms: _591  and  _592
REMARK  238  A    between atoms: _591  and  _594
REMARK  239  A    between atoms: _594  and  _595
REMARK  240  A    between atoms: _595  and  _596
REMARK  241  A    between atoms: _599  and  _601
REMARK  242  A    between atoms: _601  and  _602
REMARK  243  A    between atoms: _601  and  _604
REMARK  244  A    between atoms: _604  and  _605
REMARK  245  A    between atoms: _610  and  _612
REMARK  246  A    between atoms: _612  and  _613
REMARK  247  A    between atoms: _612  and  _615
REMARK  248  A    between atoms: _615  and  _616
REMARK  249  A    between atoms: _619  and  _621
REMARK  250  A    between atoms: _621  and  _622
REMARK  251  A    between atoms: _625  and  _627
REMARK  252  A    between atoms: _627  and  _628
REMARK  253  A    between atoms: _627  and  _630
REMARK  254  A    between atoms: _630  and  _631
REMARK  255  A    between atoms: _637  and  _639
REMARK  256  A    between atoms: _639  and  _640
REMARK  257  A    between atoms: _642  and  _644
REMARK  258  A    between atoms: _644  and  _645
REMARK  259  A    between atoms: _644  and  _647
REMARK  260  A    between atoms: _647  and  _648
REMARK  261  A    between atoms: _650  and  _652
REMARK  262  A    between atoms: _652  and  _653
REMARK                            x       y       z     vdW  Elec       q    Type
REMARK                         _______ _______ _______ _____ _____    ______ ____
ROOT
ATOM      1  C   SER A   3      17.887  -9.012  41.696  0.00  0.00    +0.243 C 
ATOM      2  O   SER A   3      18.714  -9.545  42.431  0.00  0.00    -0.273 OA
ATOM      3  N   TYR A   4      16.655  -9.486  41.550  0.00  0.00    -0.297 N 
ATOM      4  H   TYR A   4      16.009  -9.047  40.864  0.00  0.00    +0.150 HD
ENDROOT
BRANCH   3   5
ATOM      5  CA  TYR A   4      16.203 -10.624  42.351  0.00  0.00    +0.153 C 
BRANCH   5   6
ATOM      6  C   TYR A   4      16.969 -11.926  42.079  0.00  0.00    +0.241 C 
ATOM      7  O   TYR A   4      17.118 -12.752  42.977  0.00  0.00    -0.273 OA
ATOM      8  N   LYS A   5      17.504 -12.074  40.866  0.00  0.00    -0.298 N 
ATOM      9  H   LYS A   5      17.374 -11.316  40.166  0.00  0.00    +0.150 HD
BRANCH   8  10
ATOM     10  CA  LYS A   5      18.270 -13.269  40.483  0.00  0.00    +0.137 C 
BRANCH  10  11
ATOM     11  C   LYS A   5      19.606 -13.373  41.219  0.00  0.00    +0.227 C 
ATOM     12  O   LYS A   5      20.218 -14.439  41.262  0.00  0.00    -0.286 OA
ENDBRANCH  10  11
BRANCH  10  13
ATOM     13  CB  LYS A   5      18.476 -13.329  38.963  0.00  0.00    +0.028 C 
BRANCH  13  14
ATOM     14  CG  LYS A   5      17.176 -13.514  38.162  0.00  0.00    -0.000 C 
BRANCH  14  15
ATOM     15  CD  LYS A   5      17.439 -13.300  36.668  0.00  0.00    -0.024 C 
BRANCH  15  16
ATOM     16  CE  LYS A   5      16.209 -13.604  35.803  0.00  0.00    -0.086 C 
BRANCH  16  17
ATOM     17  NZ  LYS A   5      15.924 -15.066  35.795  0.00  0.00    +0.380 N 
ATOM     18  HZ1 LYS A   5      15.742 -15.388  36.767  0.00  0.00    -0.089 HD
ATOM     19  HZ2 LYS A   5      16.744 -15.576  35.408  0.00  0.00    -0.089 HD
ATOM     20  HZ3 LYS A   5      15.088 -15.252  35.204  0.00  0.00    -0.089 HD
ENDBRANCH  16  17
ENDBRANCH  15  16
ENDBRANCH  14  15
ENDBRANCH  13  14
ENDBRANCH  10  13
ENDBRANCH   8  10
ENDBRANCH   5   6
BRANCH   5  21
ATOM     21  CB  TYR A   4      14.667 -10.780  42.307  0.00  0.00    +0.055 C 
BRANCH  21  22
ATOM     22  CG  TYR A   4      14.011 -11.293  41.027  0.00  0.00    -0.020 A 
ATOM     23  CD2 TYR A   4      12.770 -11.934  41.089  0.00  0.00    -0.001 A 
ATOM     24  CE2 TYR A   4      12.146 -12.400  39.938  0.00  0.00    +0.036 A 
ATOM     25  CZ  TYR A   4      12.771 -12.241  38.712  0.00  0.00    +0.134 A 
ATOM     26  CE1 TYR A   4      13.991 -11.625  38.626  0.00  0.00    +0.036 A 
ATOM     27  CD1 TYR A   4      14.607 -11.148  39.777  0.00  0.00    -0.001 A 
BRANCH  25  28
ATOM     28  OH  TYR A   4      12.161 -12.719  37.583  0.00  0.00    -0.506 OA
ATOM     29  HH  TYR A   4      11.294 -13.130  37.827  0.00  0.00    +0.292 HD
ENDBRANCH  25  28
ENDBRANCH  21  22
ENDBRANCH   5  21
ENDBRANCH   3   5
BRANCH   1  30
ATOM     30  CA  SER A   3      18.259  -7.767  40.892  0.00  0.00    +0.178 C 
BRANCH  30  32
ATOM     31  C   ASP A   2      17.932  -8.883  38.720  0.00  0.00    +0.241 C 
ATOM     32  N   SER A   3      17.846  -7.788  39.479  0.00  0.00    -0.295 N 
ATOM     33  H   SER A   3      17.472  -6.915  39.055  0.00  0.00    +0.150 HD
ATOM     34  O   ASP A   2      18.330  -9.965  39.142  0.00  0.00    -0.273 OA
BRANCH  31  35
ATOM     35  CA  ASP A   2      17.496  -8.747  37.270  0.00  0.00    +0.160 C 
BRANCH  35  38
ATOM     36  C   THR A   1      19.738  -8.701  36.288  0.00  0.00    +0.241 C 
ATOM     37  O   THR A   1      19.964  -7.567  36.745  0.00  0.00    -0.274 OA
ATOM     38  N   ASP A   2      18.550  -9.306  36.411  0.00  0.00    -0.297 N 
ATOM     39  H   ASP A   2      18.370 -10.187  35.889  0.00  0.00    +0.150 HD
BRANCH  36  40
ATOM     40  CA  THR A   1      20.840  -9.468  35.526  0.00  0.00    +0.172 C 
BRANCH  40  41
ATOM     41  N   THR A   1      21.990  -8.607  35.248  0.00  0.00    -0.236 NA
ATOM     42  H   THR A   1      22.337  -7.982  36.004  0.00  0.00    +0.142 HD
ENDBRANCH  40  41
BRANCH  40  43
ATOM     43  CB  THR A   1      21.306 -10.756  36.284  0.00  0.00    +0.135 C 
ATOM     44  CG2 THR A   1      21.506 -10.508  37.768  0.00  0.00    +0.034 C 
BRANCH  43  45
ATOM     45  OG1 THR A   1      20.274 -11.740  36.246  0.00  0.00    -0.383 OA
ATOM     46  HG1 THR A   1      20.072 -11.969  35.304  0.00  0.00    +0.210 HD
ENDBRANCH  43  45
ENDBRANCH  40  43
ENDBRANCH  36  40
ENDBRANCH  35  38
BRANCH  35  47
ATOM     47  CB  ASP A   2      16.156  -9.478  37.078  0.00  0.00    +0.143 C 
BRANCH  47  48
ATOM     48  CG  ASP A   2      15.530  -9.228  35.725  0.00  0.00    +0.367 C 
ATOM     49  OD2 ASP A   2      15.197  -8.054  35.417  0.00  0.00    -0.246 OA
ATOM     50  OD1 ASP A   2      15.312 -10.159  34.910  0.00  0.00    -0.246 OA
ENDBRANCH  47  48
ENDBRANCH  35  47
ENDBRANCH  31  35
ENDBRANCH  30  32
BRANCH  30  51
ATOM     51  CB  SER A   3      17.697  -6.538  41.590  0.00  0.00    +0.166 C 
BRANCH  51  52
ATOM     52  OG  SER A   3      18.304  -5.359  41.101  0.00  0.00    -0.380 OA
ATOM     53  H   SER A   3      18.133  -5.280  40.129  0.00  0.00    +0.211 HD
ENDBRANCH  51  52
ENDBRANCH  30  51
ENDBRANCH   1  30
TORSDOF 24
REMARK  Name = ../refined-set-2016/2gvj/2gvj_pocket.pdb
REMARK  262 active torsions:
REMARK  status: ('A' for Active; 'I' for Inactive)
REMARK    1  A    between atoms: _1  and  _3
REMARK    2  A    between atoms: _3  and  _4
REMARK    3  A    between atoms: _3  and  _6
REMARK    4  A    between atoms: _6  and  _7
REMARK    5  A    between atoms: _10  and  _12
REMARK    6  A    between atoms: _12  and  _13
REMARK    7  A    between atoms: _12  and  _15
REMARK    8  A    between atoms: _15  and  _16
REMARK    9  A    between atoms: _19  and  _21
REMARK   10  A    between atoms: _21  and  _22
REMARK   11  A    between atoms: _21  and  _24
REMARK   12  A    between atoms: _24  and  _25
REMARK   13  A    between atoms: _27  and  _29
REMARK   14  A    between atoms: _29  and  _30
REMARK   15  A    between atoms: _29  and  _32
REMARK   16  A    between atoms: _32  and  _33
REMARK   17  A    between atoms: _38  and  _39
REMARK   18  A    between atoms: _41  and  _43
REMARK   19  A    between atoms: _43  and  _44
REMARK   20  A    between atoms: _43  and  _46
REMARK   21  A    between atoms: _46  and  _47
REMARK   22  A    between atoms: _47  and  _48
REMARK   23  A    between atoms: _48  and  _49
REMARK   24  A    between atoms: _49  and  _50
REMARK   25  A    between atoms: _54  and  _56
REMARK   26  A    between atoms: _56  and  _57
REMARK   27  A    between atoms: _56  and  _59
REMARK   28  A    between atoms: _59  and  _60
REMARK   29  A    between atoms: _65  and  _67
REMARK   30  A    between atoms: _67  and  _68
REMARK   31  A    between atoms: _67  and  _70
REMARK   32  A    between atoms: _70  and  _71
REMARK   33  A    between atoms: _71  and  _72
REMARK   34  A    between atoms: _75  and  _77
REMARK   35  A    between atoms: _77  and  _78
REMARK   36  A    between atoms: _77  and  _80
REMARK   37  A    between atoms: _80  and  _81
REMARK   38  A    between atoms: _84  and  _86
REMARK   39  A    between atoms: _86  and  _87
REMARK   40  A    between atoms: _86  and  _89
REMARK   41  A    between atoms: _89  and  _90
REMARK   42  A    between atoms: _90  and  _91
REMARK   43  A    between atoms: _91  and  _92
REMARK   44  A    between atoms: _101  and  _103
REMARK   45  A    between atoms: _103  and  _104
REMARK   46  A    between atoms: _103  and  _106
REMARK   47  A    between atoms: _106  and  _107
REMARK   48  A    between atoms: _110  and  _112
REMARK   49  A    between atoms: _112  and  _113
REMARK   50  A    between atoms: _112  and  _115
REMARK   51  A    between atoms: _115  and  _116
REMARK   52  A    between atoms: _119  and  _121
REMARK   53  A    between atoms: _121  and  _122
REMARK   54  A    between atoms: _124  and  _126
REMARK   55  A    between atoms: _126  and  _127
REMARK   56  A    between atoms: _126  and  _129
REMARK   57  A    between atoms: _129  and  _130
REMARK   58  A    between atoms: _130  and  _131
REMARK   59  A    between atoms: _134  and  _136
REMARK   60  A    between atoms: _136  and  _137
REMARK   61  A    between atoms: _136  and  _139
REMARK   62  A    between atoms: _139  and  _140
REMARK   63  A    between atoms: _145  and  _146
REMARK   64  A    between atoms: _148  and  _150
REMARK   65  A    between atoms: _150  and  _151
REMARK   66  A    between atoms: _150  and  _153
REMARK   67  A    between atoms: _153  and  _154
REMARK   68  A    between atoms: _154  and  _155
REMARK   69  A    between atoms: _155  and  _156
REMARK   70  A    between atoms: _156  and  _157
REMARK   71  A    between atoms: _161  and  _163
REMARK   72  A    between atoms: _163  and  _164
REMARK   73  A    between atoms: _163  and  _166
REMARK   74  A    between atoms: _166  and  _167
REMARK   75  A    between atoms: _170  and  _172
REMARK   76  A    between atoms: _172  and  _173
REMARK   77  A    between atoms: _172  and  _175
REMARK   78  A    between atoms: _175  and  _176
REMARK   79  A    between atoms: _181  and  _183
REMARK   80  A    between atoms: _183  and  _184
REMARK   81  A    between atoms: _183  and  _186
REMARK   82  A    between atoms: _186  and  _187
REMARK   83  A    between atoms: _190  and  _192
REMARK   84  A    between atoms: _192  and  _193
REMARK   85  A    between atoms: _192  and  _195
REMARK   86  A    between atoms: _195  and  _196
REMARK   87  A    between atoms: _202  and  _204
REMARK   88  A    between atoms: _204  and  _205
REMARK   89  A    between atoms: _207  and  _209
REMARK   90  A    between atoms: _209  and  _210
REMARK   91  A    between atoms: _209  and  _212
REMARK   92  A    between atoms: _212  and  _213
REMARK   93  A    between atoms: _218  and  _219
REMARK   94  A    between atoms: _221  and  _223
REMARK   95  A    between atoms: _223  and  _224
REMARK   96  A    between atoms: _223  and  _226
REMARK   97  A    between atoms: _226  and  _227
REMARK   98  A    between atoms: _227  and  _228
REMARK   99  A    between atoms: _228  and  _229
REMARK  100  A    between atoms: _238  and  _240
REMARK  101  A    between atoms: _240  and  _241
REMARK  102  A    between atoms: _243  and  _245
REMARK  103  A    between atoms: _245  and  _246
REMARK  104  A    between atoms: _248  and  _250
REMARK  105  A    between atoms: _250  and  _251
REMARK  106  A    between atoms: _250  and  _253
REMARK  107  A    between atoms: _253  and  _254
REMARK  108  A    between atoms: _257  and  _259
REMARK  109  A    between atoms: _259  and  _260
REMARK  110  A    between atoms: _259  and  _262
REMARK  111  A    between atoms: _262  and  _263
REMARK  112  A    between atoms: _266  and  _268
REMARK  113  A    between atoms: _268  and  _269
REMARK  114  A    between atoms: _268  and  _271
REMARK  115  A    between atoms: _271  and  _272
REMARK  116  A    between atoms: _275  and  _277
REMARK  117  A    between atoms: _277  and  _278
REMARK  118  A    between atoms: _277  and  _280
REMARK  119  A    between atoms: _280  and  _281
REMARK  120  A    between atoms: _286  and  _287
REMARK  121  A    between atoms: _289  and  _291
REMARK  122  A    between atoms: _291  and  _292
REMARK  123  A    between atoms: _291  and  _294
REMARK  124  A    between atoms: _294  and  _295
REMARK  125  A    between atoms: _297  and  _299
REMARK  126  A    between atoms: _299  and  _300
REMARK  127  A    between atoms: _299  and  _302
REMARK  128  A    between atoms: _306  and  _307
REMARK  129  A    between atoms: _312  and  _314
REMARK  130  A    between atoms: _314  and  _315
REMARK  131  A    between atoms: _318  and  _320
REMARK  132  A    between atoms: _320  and  _321
REMARK  133  A    between atoms: _324  and  _326
REMARK  134  A    between atoms: _326  and  _327
REMARK  135  A    between atoms: _326  and  _329
REMARK  136  A    between atoms: _329  and  _330
REMARK  137  A    between atoms: _330  and  _331
REMARK  138  A    between atoms: _334  and  _336
REMARK  139  A    between atoms: _336  and  _337
REMARK  140  A    between atoms: _336  and  _339
REMARK  141  A    between atoms: _339  and  _340
REMARK  142  A    between atoms: _346  and  _347
REMARK  143  A    between atoms: _352  and  _354
REMARK  144  A    between atoms: _354  and  _355
REMARK  145  A    between atoms: _354  and  _357
REMARK  146  A    between atoms: _360  and  _362
REMARK  147  A    between atoms: _362  and  _363
REMARK  148  A    between atoms: _362  and  _365
REMARK  149  A    between atoms: _365  and  _366
REMARK  150  A    between atoms: _368  and  _370
REMARK  151  A    between atoms: _370  and  _371
REMARK  152  A    between atoms: _370  and  _373
REMARK  153  A    between atoms: _376  and  _378
REMARK  154  A    between atoms: _378  and  _379
REMARK  155  A    between atoms: _378  and  _381
REMARK  156  A    between atoms: _384  and  _386
REMARK  157  A    between atoms: _386  and  _387
REMARK  158  A    between atoms: _386  and  _389
REMARK  159  A    between atoms: _389  and  _390
REMARK  160  A    between atoms: _393  and  _395
REMARK  161  A    between atoms: _395  and  _396
REMARK  162  A    between atoms: _395  and  _398
REMARK  163  A    between atoms: _398  and  _399
REMARK  164  A    between atoms: _399  and  _400
REMARK  165  A    between atoms: _405  and  _407
REMARK  166  A    between atoms: _407  and  _408
REMARK  167  A    between atoms: _412  and  _413
REMARK  168  A    between atoms: _418  and  _420
REMARK  169  A    between atoms: _420  and  _421
REMARK  170  A    between atoms: _420  and  _423
REMARK  171  A    between atoms: _423  and  _424
REMARK  172  A    between atoms: _427  and  _429
REMARK  173  A    between atoms: _429  and  _430
REMARK  174  A    between atoms: _429  and  _432
REMARK  175  A    between atoms: _432  and  _433
REMARK  176  A    between atoms: _436  and  _438
REMARK  177  A    between atoms: _438  and  _439
REMARK  178  A    between atoms: _438  and  _441
REMARK  179  A    between atoms: _441  and  _442
REMARK  180  A    between atoms: _445  and  _447
REMARK  181  A    between atoms: _447  and  _448
REMARK  182  A    between atoms: _447  and  _450
REMARK  183  A    between atoms: _450  and  _451
REMARK  184  A    between atoms: _451  and  _452
REMARK  185  A    between atoms: _452  and  _453
REMARK  186  A    between atoms: _463  and  _464
REMARK  187  A    between atoms: _469  and  _471
REMARK  188  A    between atoms: _471  and  _472
REMARK  189  A    between atoms: _471  and  _474
REMARK  190  A    between atoms: _474  and  _475
REMARK  191  A    between atoms: _478  and  _480
REMARK  192  A    between atoms: _480  and  _481
REMARK  193  A    between atoms: _480  and  _483
REMARK  194  A    between atoms: _483  and  _484
REMARK  195  A    between atoms: _487  and  _489
REMARK  196  A    between atoms: _489  and  _490
REMARK  197  A    between atoms: _489  and  _492
REMARK  198  A    between atoms: _492  and  _493
REMARK  199  A    between atoms: _497  and  _498
REMARK  200  A    between atoms: _503  and  _505
REMARK  201  A    between atoms: _505  and  _506
REMARK  202  A    between atoms: _505  and  _508
REMARK  203  A    between atoms: _508  and  _509
REMARK  204  A    between atoms: _512  and  _514
REMARK  205  A    between atoms: _514  and  _515
REMARK  206  A    between atoms: _514  and  _517
REMARK  207  A    between atoms: _517  and  _518
REMARK  208  A    between atoms: _518  and  _519
REMARK  209  A    between atoms: _519  and  _520
REMARK  210  A    between atoms: _529  and  _531
REMARK  211  A    between atoms: _531  and  _532
REMARK  212  A    between atoms: _531  and  _534
REMARK  213  A    between atoms: _537  and  _539
REMARK  214  A    between atoms: _539  and  _540
REMARK  215  A    between atoms: _539  and  _542
REMARK  216  A    between atoms: _542  and  _543
REMARK  217  A    between atoms: _546  and  _548
REMARK  218  A    between atoms: _548  and  _549
REMARK  219  A    between atoms: _548  and  _551
REMARK  220  A    between atoms: _551  and  _552
REMARK  221  A    between atoms: _552  and  _553
REMARK  222  A    between atoms: _558  and  _560
REMARK  223  A    between atoms: _560  and  _561
REMARK  224  A    between atoms: _563  and  _565
REMARK  225  A    between atoms: _565  and  _566
REMARK  226  A    between atoms: _565  and  _568
REMARK  227  A    between atoms: _568  and  _569
REMARK  228  A    between atoms: _572  and  _574
REMARK  229  A    between atoms: _574  and  _575
REMARK  230  A    between atoms: _574  and  _577
REMARK  231  A    between atoms: _577  and  _578
REMARK  232  A    between atoms: _580  and  _582
REMARK  233  A    between atoms: _582  and  _583
REMARK  234  A    between atoms: _582  and  _585
REMARK  235  A    between atoms: _585  and  _586
REMARK  236  A    between atoms: _589  and  _591
REMARK  237  A    between atoms: _591  and  _592
REMARK  238  A    between atoms: _591  and  _594
REMARK  239  A    between atoms: _594  and  _595
REMARK  240  A    between atoms: _595  and  _596
REMARK  241  A    between atoms: _599  and  _601
REMARK  242  A    between atoms: _601  and  _602
REMARK  243  A    between atoms: _601  and  _604
REMARK  244  A    between atoms: _604  and  _605
REMARK  245  A    between atoms: _610  and  _612
REMARK  246  A    between atoms: _612  and  _613
REMARK  247  A    between atoms: _612  and  _615
REMARK  248  A    between atoms: _615  and  _616
REMARK  249  A    between atoms: _619  and  _621
REMARK  250  A    between atoms: _621  and  _622
REMARK  251  A    between atoms: _625  and  _627
REMARK  252  A    between atoms: _627  and  _628
REMARK  253  A    between atoms: _627  and  _630
REMARK  254  A    between atoms: _630  and  _631
REMARK  255  A    between atoms: _637  and  _639
REMARK  256  A    between atoms: _639  and  _640
REMARK  257  A    between atoms: _642  and  _644
REMARK  258  A    between atoms: _644  and  _645
REMARK  259  A    between atoms: _644  and  _647
REMARK  260  A    between atoms: _647  and  _648
REMARK  261  A    between atoms: _650  and  _652
REMARK  262  A    between atoms: _652  and  _653
REMARK                            x       y       z     vdW  Elec       q    Type
REMARK                         _______ _______ _______ _____ _____    ______ ____
ROOT
ATOM      1  CB  HIS A   1      17.671 -17.144  42.156  0.00  0.00    +0.072 C 
ENDROOT
BRANCH   1   2
ATOM      2  CG  HIS A   1      16.570 -16.221  41.734  0.00  0.00    +0.082 A 
ATOM      3  ND1 HIS A   1      15.745 -15.579  42.633  0.00  0.00    -0.227 NA
ATOM      4  CE1 HIS A   1      14.863 -14.848  41.976  0.00  0.00    +0.199 A 
ATOM      5  NE2 HIS A   1      15.080 -15.000  40.683  0.00  0.00    -0.221 NA
ATOM      6  CD2 HIS A   1      16.141 -15.855  40.505  0.00  0.00    +0.115 A 
ENDBRANCH   1   2
BRANCH   1   7
ATOM      7  CA  HIS A   1      18.004 -17.072  43.648  0.00  0.00    +0.139 C 
BRANCH   7   8
ATOM      8  N   HIS A   1      18.647 -15.796  43.987  0.00  0.00    -0.239 NA
ATOM      9  H   HIS A   1      19.092 -15.226  43.239  0.00  0.00    +0.142 HD
ENDBRANCH   7   8
BRANCH   7  10
ATOM     10  C   HIS A   1      18.770 -18.325  44.064  0.00  0.00    +0.224 C 
ATOM     11  O   HIS A   1      18.164 -19.385  44.231  0.00  0.00    -0.287 OA
ENDBRANCH   7  10
ENDBRANCH   1   7
TORSDOF 4
REMARK  Name = ../refined-set-2016/2gvj/2gvj_pocket.pdb
REMARK  262 active torsions:
REMARK  status: ('A' for Active; 'I' for Inactive)
REMARK    1  A    between atoms: _1  and  _3
REMARK    2  A    between atoms: _3  and  _4
REMARK    3  A    between atoms: _3  and  _6
REMARK    4  A    between atoms: _6  and  _7
REMARK    5  A    between atoms: _10  and  _12
REMARK    6  A    between atoms: _12  and  _13
REMARK    7  A    between atoms: _12  and  _15
REMARK    8  A    between atoms: _15  and  _16
REMARK    9  A    between atoms: _19  and  _21
REMARK   10  A    between atoms: _21  and  _22
REMARK   11  A    between atoms: _21  and  _24
REMARK   12  A    between atoms: _24  and  _25
REMARK   13  A    between atoms: _27  and  _29
REMARK   14  A    between atoms: _29  and  _30
REMARK   15  A    between atoms: _29  and  _32
REMARK   16  A    between atoms: _32  and  _33
REMARK   17  A    between atoms: _38  and  _39
REMARK   18  A    between atoms: _41  and  _43
REMARK   19  A    between atoms: _43  and  _44
REMARK   20  A    between atoms: _43  and  _46
REMARK   21  A    between atoms: _46  and  _47
REMARK   22  A    between atoms: _47  and  _48
REMARK   23  A    between atoms: _48  and  _49
REMARK   24  A    between atoms: _49  and  _50
REMARK   25  A    between atoms: _54  and  _56
REMARK   26  A    between atoms: _56  and  _57
REMARK   27  A    between atoms: _56  and  _59
REMARK   28  A    between atoms: _59  and  _60
REMARK   29  A    between atoms: _65  and  _67
REMARK   30  A    between atoms: _67  and  _68
REMARK   31  A    between atoms: _67  and  _70
REMARK   32  A    between atoms: _70  and  _71
REMARK   33  A    between atoms: _71  and  _72
REMARK   34  A    between atoms: _75  and  _77
REMARK   35  A    between atoms: _77  and  _78
REMARK   36  A    between atoms: _77  and  _80
REMARK   37  A    between atoms: _80  and  _81
REMARK   38  A    between atoms: _84  and  _86
REMARK   39  A    between atoms: _86  and  _87
REMARK   40  A    between atoms: _86  and  _89
REMARK   41  A    between atoms: _89  and  _90
REMARK   42  A    between atoms: _90  and  _91
REMARK   43  A    between atoms: _91  and  _92
REMARK   44  A    between atoms: _101  and  _103
REMARK   45  A    between atoms: _103  and  _104
REMARK   46  A    between atoms: _103  and  _106
REMARK   47  A    between atoms: _106  and  _107
REMARK   48  A    between atoms: _110  and  _112
REMARK   49  A    between atoms: _112  and  _113
REMARK   50  A    between atoms: _112  and  _115
REMARK   51  A    between atoms: _115  and  _116
REMARK   52  A    between atoms: _119  and  _121
REMARK   53  A    between atoms: _121  and  _122
REMARK   54  A    between atoms: _124  and  _126
REMARK   55  A    between atoms: _126  and  _127
REMARK   56  A    between atoms: _126  and  _129
REMARK   57  A    between atoms: _129  and  _130
REMARK   58  A    between atoms: _130  and  _131
REMARK   59  A    between atoms: _134  and  _136
REMARK   60  A    between atoms: _136  and  _137
REMARK   61  A    between atoms: _136  and  _139
REMARK   62  A    between atoms: _139  and  _140
REMARK   63  A    between atoms: _145  and  _146
REMARK   64  A    between atoms: _148  and  _150
REMARK   65  A    between atoms: _150  and  _151
REMARK   66  A    between atoms: _150  and  _153
REMARK   67  A    between atoms: _153  and  _154
REMARK   68  A    between atoms: _154  and  _155
REMARK   69  A    between atoms: _155  and  _156
REMARK   70  A    between atoms: _156  and  _157
REMARK   71  A    between atoms: _161  and  _163
REMARK   72  A    between atoms: _163  and  _164
REMARK   73  A    between atoms: _163  and  _166
REMARK   74  A    between atoms: _166  and  _167
REMARK   75  A    between atoms: _170  and  _172
REMARK   76  A    between atoms: _172  and  _173
REMARK   77  A    between atoms: _172  and  _175
REMARK   78  A    between atoms: _175  and  _176
REMARK   79  A    between atoms: _181  and  _183
REMARK   80  A    between atoms: _183  and  _184
REMARK   81  A    between atoms: _183  and  _186
REMARK   82  A    between atoms: _186  and  _187
REMARK   83  A    between atoms: _190  and  _192
REMARK   84  A    between atoms: _192  and  _193
REMARK   85  A    between atoms: _192  and  _195
REMARK   86  A    between atoms: _195  and  _196
REMARK   87  A    between atoms: _202  and  _204
REMARK   88  A    between atoms: _204  and  _205
REMARK   89  A    between atoms: _207  and  _209
REMARK   90  A    between atoms: _209  and  _210
REMARK   91  A    between atoms: _209  and  _212
REMARK   92  A    between atoms: _212  and  _213
REMARK   93  A    between atoms: _218  and  _219
REMARK   94  A    between atoms: _221  and  _223
REMARK   95  A    between atoms: _223  and  _224
REMARK   96  A    between atoms: _223  and  _226
REMARK   97  A    between atoms: _226  and  _227
REMARK   98  A    between atoms: _227  and  _228
REMARK   99  A    between atoms: _228  and  _229
REMARK  100  A    between atoms: _238  and  _240
REMARK  101  A    between atoms: _240  and  _241
REMARK  102  A    between atoms: _243  and  _245
REMARK  103  A    between atoms: _245  and  _246
REMARK  104  A    between atoms: _248  and  _250
REMARK  105  A    between atoms: _250  and  _251
REMARK  106  A    between atoms: _250  and  _253
REMARK  107  A    between atoms: _253  and  _254
REMARK  108  A    between atoms: _257  and  _259
REMARK  109  A    between atoms: _259  and  _260
REMARK  110  A    between atoms: _259  and  _262
REMARK  111  A    between atoms: _262  and  _263
REMARK  112  A    between atoms: _266  and  _268
REMARK  113  A    between atoms: _268  and  _269
REMARK  114  A    between atoms: _268  and  _271
REMARK  115  A    between atoms: _271  and  _272
REMARK  116  A    between atoms: _275  and  _277
REMARK  117  A    between atoms: _277  and  _278
REMARK  118  A    between atoms: _277  and  _280
REMARK  119  A    between atoms: _280  and  _281
REMARK  120  A    between atoms: _286  and  _287
REMARK  121  A    between atoms: _289  and  _291
REMARK  122  A    between atoms: _291  and  _292
REMARK  123  A    between atoms: _291  and  _294
REMARK  124  A    between atoms: _294  and  _295
REMARK  125  A    between atoms: _297  and  _299
REMARK  126  A    between atoms: _299  and  _300
REMARK  127  A    between atoms: _299  and  _302
REMARK  128  A    between atoms: _306  and  _307
REMARK  129  A    between atoms: _312  and  _314
REMARK  130  A    between atoms: _314  and  _315
REMARK  131  A    between atoms: _318  and  _320
REMARK  132  A    between atoms: _320  and  _321
REMARK  133  A    between atoms: _324  and  _326
REMARK  134  A    between atoms: _326  and  _327
REMARK  135  A    between atoms: _326  and  _329
REMARK  136  A    between atoms: _329  and  _330
REMARK  137  A    between atoms: _330  and  _331
REMARK  138  A    between atoms: _334  and  _336
REMARK  139  A    between atoms: _336  and  _337
REMARK  140  A    between atoms: _336  and  _339
REMARK  141  A    between atoms: _339  and  _340
REMARK  142  A    between atoms: _346  and  _347
REMARK  143  A    between atoms: _352  and  _354
REMARK  144  A    between atoms: _354  and  _355
REMARK  145  A    between atoms: _354  and  _357
REMARK  146  A    between atoms: _360  and  _362
REMARK  147  A    between atoms: _362  and  _363
REMARK  148  A    between atoms: _362  and  _365
REMARK  149  A    between atoms: _365  and  _366
REMARK  150  A    between atoms: _368  and  _370
REMARK  151  A    between atoms: _370  and  _371
REMARK  152  A    between atoms: _370  and  _373
REMARK  153  A    between atoms: _376  and  _378
REMARK  154  A    between atoms: _378  and  _379
REMARK  155  A    between atoms: _378  and  _381
REMARK  156  A    between atoms: _384  and  _386
REMARK  157  A    between atoms: _386  and  _387
REMARK  158  A    between atoms: _386  and  _389
REMARK  159  A    between atoms: _389  and  _390
REMARK  160  A    between atoms: _393  and  _395
REMARK  161  A    between atoms: _395  and  _396
REMARK  162  A    between atoms: _395  and  _398
REMARK  163  A    between atoms: _398  and  _399
REMARK  164  A    between atoms: _399  and  _400
REMARK  165  A    between atoms: _405  and  _407
REMARK  166  A    between atoms: _407  and  _408
REMARK  167  A    between atoms: _412  and  _413
REMARK  168  A    between atoms: _418  and  _420
REMARK  169  A    between atoms: _420  and  _421
REMARK  170  A    between atoms: _420  and  _423
REMARK  171  A    between atoms: _423  and  _424
REMARK  172  A    between atoms: _427  and  _429
REMARK  173  A    between atoms: _429  and  _430
REMARK  174  A    between atoms: _429  and  _432
REMARK  175  A    between atoms: _432  and  _433
REMARK  176  A    between atoms: _436  and  _438
REMARK  177  A    between atoms: _438  and  _439
REMARK  178  A    between atoms: _438  and  _441
REMARK  179  A    between atoms: _441  and  _442
REMARK  180  A    between atoms: _445  and  _447
REMARK  181  A    between atoms: _447  and  _448
REMARK  182  A    between atoms: _447  and  _450
REMARK  183  A    between atoms: _450  and  _451
REMARK  184  A    between atoms: _451  and  _452
REMARK  185  A    between atoms: _452  and  _453
REMARK  186  A    between atoms: _463  and  _464
REMARK  187  A    between atoms: _469  and  _471
REMARK  188  A    between atoms: _471  and  _472
REMARK  189  A    between atoms: _471  and  _474
REMARK  190  A    between atoms: _474  and  _475
REMARK  191  A    between atoms: _478  and  _480
REMARK  192  A    between atoms: _480  and  _481
REMARK  193  A    between atoms: _480  and  _483
REMARK  194  A    between atoms: _483  and  _484
REMARK  195  A    between atoms: _487  and  _489
REMARK  196  A    between atoms: _489  and  _490
REMARK  197  A    between atoms: _489  and  _492
REMARK  198  A    between atoms: _492  and  _493
REMARK  199  A    between atoms: _497  and  _498
REMARK  200  A    between atoms: _503  and  _505
REMARK  201  A    between atoms: _505  and  _506
REMARK  202  A    between atoms: _505  and  _508
REMARK  203  A    between atoms: _508  and  _509
REMARK  204  A    between atoms: _512  and  _514
REMARK  205  A    between atoms: _514  and  _515
REMARK  206  A    between atoms: _514  and  _517
REMARK  207  A    between atoms: _517  and  _518
REMARK  208  A    between atoms: _518  and  _519
REMARK  209  A    between atoms: _519  and  _520
REMARK  210  A    between atoms: _529  and  _531
REMARK  211  A    between atoms: _531  and  _532
REMARK  212  A    between atoms: _531  and  _534
REMARK  213  A    between atoms: _537  and  _539
REMARK  214  A    between atoms: _539  and  _540
REMARK  215  A    between atoms: _539  and  _542
REMARK  216  A    between atoms: _542  and  _543
REMARK  217  A    between atoms: _546  and  _548
REMARK  218  A    between atoms: _548  and  _549
REMARK  219  A    between atoms: _548  and  _551
REMARK  220  A    between atoms: _551  and  _552
REMARK  221  A    between atoms: _552  and  _553
REMARK  222  A    between atoms: _558  and  _560
REMARK  223  A    between atoms: _560  and  _561
REMARK  224  A    between atoms: _563  and  _565
REMARK  225  A    between atoms: _565  and  _566
REMARK  226  A    between atoms: _565  and  _568
REMARK  227  A    between atoms: _568  and  _569
REMARK  228  A    between atoms: _572  and  _574
REMARK  229  A    between atoms: _574  and  _575
REMARK  230  A    between atoms: _574  and  _577
REMARK  231  A    between atoms: _577  and  _578
REMARK  232  A    between atoms: _580  and  _582
REMARK  233  A    between atoms: _582  and  _583
REMARK  234  A    between atoms: _582  and  _585
REMARK  235  A    between atoms: _585  and  _586
REMARK  236  A    between atoms: _589  and  _591
REMARK  237  A    between atoms: _591  and  _592
REMARK  238  A    between atoms: _591  and  _594
REMARK  239  A    between atoms: _594  and  _595
REMARK  240  A    between atoms: _595  and  _596
REMARK  241  A    between atoms: _599  and  _601
REMARK  242  A    between atoms: _601  and  _602
REMARK  243  A    between atoms: _601  and  _604
REMARK  244  A    between atoms: _604  and  _605
REMARK  245  A    between atoms: _610  and  _612
REMARK  246  A    between atoms: _612  and  _613
REMARK  247  A    between atoms: _612  and  _615
REMARK  248  A    between atoms: _615  and  _616
REMARK  249  A    between atoms: _619  and  _621
REMARK  250  A    between atoms: _621  and  _622
REMARK  251  A    between atoms: _625  and  _627
REMARK  252  A    between atoms: _627  and  _628
REMARK  253  A    between atoms: _627  and  _630
REMARK  254  A    between atoms: _630  and  _631
REMARK  255  A    between atoms: _637  and  _639
REMARK  256  A    between atoms: _639  and  _640
REMARK  257  A    between atoms: _642  and  _644
REMARK  258  A    between atoms: _644  and  _645
REMARK  259  A    between atoms: _644  and  _647
REMARK  260  A    between atoms: _647  and  _648
REMARK  261  A    between atoms: _650  and  _652
REMARK  262  A    between atoms: _652  and  _653
REMARK                            x       y       z     vdW  Elec       q    Type
REMARK                         _______ _______ _______ _____ _____    ______ ____
ROOT
ATOM      1  C   GLU A   1      17.799 -13.925  30.982  0.00  0.00    +0.238 C 
ATOM      2  N   THR A   2      18.073 -12.900  31.788  0.00  0.00    -0.296 N 
ATOM      3  H   THR A   2      18.517 -13.092  32.709  0.00  0.00    +0.150 HD
ATOM      4  O   GLU A   1      17.414 -13.788  29.817  0.00  0.00    -0.274 OA
ENDROOT
BRANCH   1   5
ATOM      5  CA  GLU A   1      18.007 -15.326  31.571  0.00  0.00    +0.145 C 
BRANCH   5   6
ATOM      6  N   GLU A   1      19.338 -15.442  32.203  0.00  0.00    -0.238 NA
ATOM      7  H   GLU A   1      19.406 -15.690  33.211  0.00  0.00    +0.142 HD
ENDBRANCH   5   6
BRANCH   5   8
ATOM      8  CB  GLU A   1      16.860 -15.657  32.547  0.00  0.00    +0.038 C 
BRANCH   8   9
ATOM      9  CG  GLU A   1      15.482 -15.305  31.986  0.00  0.00    +0.116 C 
BRANCH   9  10
ATOM     10  CD  GLU A   1      14.298 -15.668  32.884  0.00  0.00    +0.365 C 
ATOM     11  OE2 GLU A   1      14.510 -16.179  34.010  0.00  0.00    -0.246 OA
ATOM     12  OE1 GLU A   1      13.137 -15.455  32.444  0.00  0.00    -0.246 OA
ENDBRANCH   9  10
ENDBRANCH   8   9
ENDBRANCH   5   8
ENDBRANCH   1   5
BRANCH   2  13
ATOM     13  CA  THR A   2      17.772 -11.512  31.424  0.00  0.00    +0.164 C 
BRANCH  13  14
ATOM     14  CB  THR A   2      18.105 -10.537  32.605  0.00  0.00    +0.136 C 
ATOM     15  CG2 THR A   2      17.357  -9.219  32.451  0.00  0.00    +0.034 C 
BRANCH  14  16
ATOM     16  OG1 THR A   2      17.580 -11.062  33.838  0.00  0.00    -0.382 OA
ATOM     17  HG1 THR A   2      16.598 -11.160  33.762  0.00  0.00    +0.210 HD
ENDBRANCH  14  16
ENDBRANCH  13  14
BRANCH  13  18
ATOM     18  C   THR A   2      18.456 -11.091  30.106  0.00  0.00    +0.229 C 
ATOM     19  O   THR A   2      17.799 -10.550  29.201  0.00  0.00    -0.286 OA
ENDBRANCH  13  18
ENDBRANCH   2  13
TORSDOF 9
REMARK  Name = ../refined-set-2016/2gvj/2gvj_pocket.pdb
REMARK  262 active torsions:
REMARK  status: ('A' for Active; 'I' for Inactive)
REMARK    1  A    between atoms: _1  and  _3
REMARK    2  A    between atoms: _3  and  _4
REMARK    3  A    between atoms: _3  and  _6
REMARK    4  A    between atoms: _6  and  _7
REMARK    5  A    between atoms: _10  and  _12
REMARK    6  A    between atoms: _12  and  _13
REMARK    7  A    between atoms: _12  and  _15
REMARK    8  A    between atoms: _15  and  _16
REMARK    9  A    between atoms: _19  and  _21
REMARK   10  A    between atoms: _21  and  _22
REMARK   11  A    between atoms: _21  and  _24
REMARK   12  A    between atoms: _24  and  _25
REMARK   13  A    between atoms: _27  and  _29
REMARK   14  A    between atoms: _29  and  _30
REMARK   15  A    between atoms: _29  and  _32
REMARK   16  A    between atoms: _32  and  _33
REMARK   17  A    between atoms: _38  and  _39
REMARK   18  A    between atoms: _41  and  _43
REMARK   19  A    between atoms: _43  and  _44
REMARK   20  A    between atoms: _43  and  _46
REMARK   21  A    between atoms: _46  and  _47
REMARK   22  A    between atoms: _47  and  _48
REMARK   23  A    between atoms: _48  and  _49
REMARK   24  A    between atoms: _49  and  _50
REMARK   25  A    between atoms: _54  and  _56
REMARK   26  A    between atoms: _56  and  _57
REMARK   27  A    between atoms: _56  and  _59
REMARK   28  A    between atoms: _59  and  _60
REMARK   29  A    between atoms: _65  and  _67
REMARK   30  A    between atoms: _67  and  _68
REMARK   31  A    between atoms: _67  and  _70
REMARK   32  A    between atoms: _70  and  _71
REMARK   33  A    between atoms: _71  and  _72
REMARK   34  A    between atoms: _75  and  _77
REMARK   35  A    between atoms: _77  and  _78
REMARK   36  A    between atoms: _77  and  _80
REMARK   37  A    between atoms: _80  and  _81
REMARK   38  A    between atoms: _84  and  _86
REMARK   39  A    between atoms: _86  and  _87
REMARK   40  A    between atoms: _86  and  _89
REMARK   41  A    between atoms: _89  and  _90
REMARK   42  A    between atoms: _90  and  _91
REMARK   43  A    between atoms: _91  and  _92
REMARK   44  A    between atoms: _101  and  _103
REMARK   45  A    between atoms: _103  and  _104
REMARK   46  A    between atoms: _103  and  _106
REMARK   47  A    between atoms: _106  and  _107
REMARK   48  A    between atoms: _110  and  _112
REMARK   49  A    between atoms: _112  and  _113
REMARK   50  A    between atoms: _112  and  _115
REMARK   51  A    between atoms: _115  and  _116
REMARK   52  A    between atoms: _119  and  _121
REMARK   53  A    between atoms: _121  and  _122
REMARK   54  A    between atoms: _124  and  _126
REMARK   55  A    between atoms: _126  and  _127
REMARK   56  A    between atoms: _126  and  _129
REMARK   57  A    between atoms: _129  and  _130
REMARK   58  A    between atoms: _130  and  _131
REMARK   59  A    between atoms: _134  and  _136
REMARK   60  A    between atoms: _136  and  _137
REMARK   61  A    between atoms: _136  and  _139
REMARK   62  A    between atoms: _139  and  _140
REMARK   63  A    between atoms: _145  and  _146
REMARK   64  A    between atoms: _148  and  _150
REMARK   65  A    between atoms: _150  and  _151
REMARK   66  A    between atoms: _150  and  _153
REMARK   67  A    between atoms: _153  and  _154
REMARK   68  A    between atoms: _154  and  _155
REMARK   69  A    between atoms: _155  and  _156
REMARK   70  A    between atoms: _156  and  _157
REMARK   71  A    between atoms: _161  and  _163
REMARK   72  A    between atoms: _163  and  _164
REMARK   73  A    between atoms: _163  and  _166
REMARK   74  A    between atoms: _166  and  _167
REMARK   75  A    between atoms: _170  and  _172
REMARK   76  A    between atoms: _172  and  _173
REMARK   77  A    between atoms: _172  and  _175
REMARK   78  A    between atoms: _175  and  _176
REMARK   79  A    between atoms: _181  and  _183
REMARK   80  A    between atoms: _183  and  _184
REMARK   81  A    between atoms: _183  and  _186
REMARK   82  A    between atoms: _186  and  _187
REMARK   83  A    between atoms: _190  and  _192
REMARK   84  A    between atoms: _192  and  _193
REMARK   85  A    between atoms: _192  and  _195
REMARK   86  A    between atoms: _195  and  _196
REMARK   87  A    between atoms: _202  and  _204
REMARK   88  A    between atoms: _204  and  _205
REMARK   89  A    between atoms: _207  and  _209
REMARK   90  A    between atoms: _209  and  _210
REMARK   91  A    between atoms: _209  and  _212
REMARK   92  A    between atoms: _212  and  _213
REMARK   93  A    between atoms: _218  and  _219
REMARK   94  A    between atoms: _221  and  _223
REMARK   95  A    between atoms: _223  and  _224
REMARK   96  A    between atoms: _223  and  _226
REMARK   97  A    between atoms: _226  and  _227
REMARK   98  A    between atoms: _227  and  _228
REMARK   99  A    between atoms: _228  and  _229
REMARK  100  A    between atoms: _238  and  _240
REMARK  101  A    between atoms: _240  and  _241
REMARK  102  A    between atoms: _243  and  _245
REMARK  103  A    between atoms: _245  and  _246
REMARK  104  A    between atoms: _248  and  _250
REMARK  105  A    between atoms: _250  and  _251
REMARK  106  A    between atoms: _250  and  _253
REMARK  107  A    between atoms: _253  and  _254
REMARK  108  A    between atoms: _257  and  _259
REMARK  109  A    between atoms: _259  and  _260
REMARK  110  A    between atoms: _259  and  _262
REMARK  111  A    between atoms: _262  and  _263
REMARK  112  A    between atoms: _266  and  _268
REMARK  113  A    between atoms: _268  and  _269
REMARK  114  A    between atoms: _268  and  _271
REMARK  115  A    between atoms: _271  and  _272
REMARK  116  A    between atoms: _275  and  _277
REMARK  117  A    between atoms: _277  and  _278
REMARK  118  A    between atoms: _277  and  _280
REMARK  119  A    between atoms: _280  and  _281
REMARK  120  A    between atoms: _286  and  _287
REMARK  121  A    between atoms: _289  and  _291
REMARK  122  A    between atoms: _291  and  _292
REMARK  123  A    between atoms: _291  and  _294
REMARK  124  A    between atoms: _294  and  _295
REMARK  125  A    between atoms: _297  and  _299
REMARK  126  A    between atoms: _299  and  _300
REMARK  127  A    between atoms: _299  and  _302
REMARK  128  A    between atoms: _306  and  _307
REMARK  129  A    between atoms: _312  and  _314
REMARK  130  A    between atoms: _314  and  _315
REMARK  131  A    between atoms: _318  and  _320
REMARK  132  A    between atoms: _320  and  _321
REMARK  133  A    between atoms: _324  and  _326
REMARK  134  A    between atoms: _326  and  _327
REMARK  135  A    between atoms: _326  and  _329
REMARK  136  A    between atoms: _329  and  _330
REMARK  137  A    between atoms: _330  and  _331
REMARK  138  A    between atoms: _334  and  _336
REMARK  139  A    between atoms: _336  and  _337
REMARK  140  A    between atoms: _336  and  _339
REMARK  141  A    between atoms: _339  and  _340
REMARK  142  A    between atoms: _346  and  _347
REMARK  143  A    between atoms: _352  and  _354
REMARK  144  A    between atoms: _354  and  _355
REMARK  145  A    between atoms: _354  and  _357
REMARK  146  A    between atoms: _360  and  _362
REMARK  147  A    between atoms: _362  and  _363
REMARK  148  A    between atoms: _362  and  _365
REMARK  149  A    between atoms: _365  and  _366
REMARK  150  A    between atoms: _368  and  _370
REMARK  151  A    between atoms: _370  and  _371
REMARK  152  A    between atoms: _370  and  _373
REMARK  153  A    between atoms: _376  and  _378
REMARK  154  A    between atoms: _378  and  _379
REMARK  155  A    between atoms: _378  and  _381
REMARK  156  A    between atoms: _384  and  _386
REMARK  157  A    between atoms: _386  and  _387
REMARK  158  A    between atoms: _386  and  _389
REMARK  159  A    between atoms: _389  and  _390
REMARK  160  A    between atoms: _393  and  _395
REMARK  161  A    between atoms: _395  and  _396
REMARK  162  A    between atoms: _395  and  _398
REMARK  163  A    between atoms: _398  and  _399
REMARK  164  A    between atoms: _399  and  _400
REMARK  165  A    between atoms: _405  and  _407
REMARK  166  A    between atoms: _407  and  _408
REMARK  167  A    between atoms: _412  and  _413
REMARK  168  A    between atoms: _418  and  _420
REMARK  169  A    between atoms: _420  and  _421
REMARK  170  A    between atoms: _420  and  _423
REMARK  171  A    between atoms: _423  and  _424
REMARK  172  A    between atoms: _427  and  _429
REMARK  173  A    between atoms: _429  and  _430
REMARK  174  A    between atoms: _429  and  _432
REMARK  175  A    between atoms: _432  and  _433
REMARK  176  A    between atoms: _436  and  _438
REMARK  177  A    between atoms: _438  and  _439
REMARK  178  A    between atoms: _438  and  _441
REMARK  179  A    between atoms: _441  and  _442
REMARK  180  A    between atoms: _445  and  _447
REMARK  181  A    between atoms: _447  and  _448
REMARK  182  A    between atoms: _447  and  _450
REMARK  183  A    between atoms: _450  and  _451
REMARK  184  A    between atoms: _451  and  _452
REMARK  185  A    between atoms: _452  and  _453
REMARK  186  A    between atoms: _463  and  _464
REMARK  187  A    between atoms: _469  and  _471
REMARK  188  A    between atoms: _471  and  _472
REMARK  189  A    between atoms: _471  and  _474
REMARK  190  A    between atoms: _474  and  _475
REMARK  191  A    between atoms: _478  and  _480
REMARK  192  A    between atoms: _480  and  _481
REMARK  193  A    between atoms: _480  and  _483
REMARK  194  A    between atoms: _483  and  _484
REMARK  195  A    between atoms: _487  and  _489
REMARK  196  A    between atoms: _489  and  _490
REMARK  197  A    between atoms: _489  and  _492
REMARK  198  A    between atoms: _492  and  _493
REMARK  199  A    between atoms: _497  and  _498
REMARK  200  A    between atoms: _503  and  _505
REMARK  201  A    between atoms: _505  and  _506
REMARK  202  A    between atoms: _505  and  _508
REMARK  203  A    between atoms: _508  and  _509
REMARK  204  A    between atoms: _512  and  _514
REMARK  205  A    between atoms: _514  and  _515
REMARK  206  A    between atoms: _514  and  _517
REMARK  207  A    between atoms: _517  and  _518
REMARK  208  A    between atoms: _518  and  _519
REMARK  209  A    between atoms: _519  and  _520
REMARK  210  A    between atoms: _529  and  _531
REMARK  211  A    between atoms: _531  and  _532
REMARK  212  A    between atoms: _531  and  _534
REMARK  213  A    between atoms: _537  and  _539
REMARK  214  A    between atoms: _539  and  _540
REMARK  215  A    between atoms: _539  and  _542
REMARK  216  A    between atoms: _542  and  _543
REMARK  217  A    between atoms: _546  and  _548
REMARK  218  A    between atoms: _548  and  _549
REMARK  219  A    between atoms: _548  and  _551
REMARK  220  A    between atoms: _551  and  _552
REMARK  221  A    between atoms: _552  and  _553
REMARK  222  A    between atoms: _558  and  _560
REMARK  223  A    between atoms: _560  and  _561
REMARK  224  A    between atoms: _563  and  _565
REMARK  225  A    between atoms: _565  and  _566
REMARK  226  A    between atoms: _565  and  _568
REMARK  227  A    between atoms: _568  and  _569
REMARK  228  A    between atoms: _572  and  _574
REMARK  229  A    between atoms: _574  and  _575
REMARK  230  A    between atoms: _574  and  _577
REMARK  231  A    between atoms: _577  and  _578
REMARK  232  A    between atoms: _580  and  _582
REMARK  233  A    between atoms: _582  and  _583
REMARK  234  A    between atoms: _582  and  _585
REMARK  235  A    between atoms: _585  and  _586
REMARK  236  A    between atoms: _589  and  _591
REMARK  237  A    between atoms: _591  and  _592
REMARK  238  A    between atoms: _591  and  _594
REMARK  239  A    between atoms: _594  and  _595
REMARK  240  A    between atoms: _595  and  _596
REMARK  241  A    between atoms: _599  and  _601
REMARK  242  A    between atoms: _601  and  _602
REMARK  243  A    between atoms: _601  and  _604
REMARK  244  A    between atoms: _604  and  _605
REMARK  245  A    between atoms: _610  and  _612
REMARK  246  A    between atoms: _612  and  _613
REMARK  247  A    between atoms: _612  and  _615
REMARK  248  A    between atoms: _615  and  _616
REMARK  249  A    between atoms: _619  and  _621
REMARK  250  A    between atoms: _621  and  _622
REMARK  251  A    between atoms: _625  and  _627
REMARK  252  A    between atoms: _627  and  _628
REMARK  253  A    between atoms: _627  and  _630
REMARK  254  A    between atoms: _630  and  _631
REMARK  255  A    between atoms: _637  and  _639
REMARK  256  A    between atoms: _639  and  _640
REMARK  257  A    between atoms: _642  and  _644
REMARK  258  A    between atoms: _644  and  _645
REMARK  259  A    between atoms: _644  and  _647
REMARK  260  A    between atoms: _647  and  _648
REMARK  261  A    between atoms: _650  and  _652
REMARK  262  A    between atoms: _652  and  _653
REMARK                            x       y       z     vdW  Elec       q    Type
REMARK                         _______ _______ _______ _____ _____    ______ ____
ROOT
ATOM      1  NE  ARG A   1       9.664 -10.787  28.028  0.00  0.00    -0.265 N 
ATOM      2  CZ  ARG A   1       9.111 -10.040  28.978  0.00  0.00    +0.342 C 
ATOM      3  NH2 ARG A   1       8.454 -10.627  29.974  0.00  0.00    -0.292 N 
ATOM      4 HH21 ARG A   1       8.018 -10.050  30.721  0.00  0.00    +0.255 HD
ATOM      5 HH22 ARG A   1       8.376 -11.664  30.006  0.00  0.00    +0.255 HD
ATOM      6  NH1 ARG A   1       9.219  -8.706  28.955  0.00  0.00    -0.292 N 
ATOM      7 HH11 ARG A   1       8.780  -8.136  29.706  0.00  0.00    +0.255 HD
ATOM      8 HH12 ARG A   1       9.742  -8.240  28.186  0.00  0.00    +0.255 HD
ATOM      9  HE  ARG A   1       9.558 -11.819  28.105  0.00  0.00    +0.259 HD
ENDROOT
BRANCH   1  10
ATOM     10  CD  ARG A   1      10.413 -10.266  26.879  0.00  0.00    +0.174 C 
BRANCH  10  11
ATOM     11  CG  ARG A   1       9.580 -10.240  25.597  0.00  0.00    +0.045 C 
BRANCH  11  12
ATOM     12  CB  ARG A   1       8.788  -8.942  25.431  0.00  0.00    +0.029 C 
BRANCH  12  13
ATOM     13  CA  ARG A   1       8.064  -8.780  24.094  0.00  0.00    +0.133 C 
BRANCH  13  14
ATOM     14  N   ARG A   1       7.876  -7.361  23.798  0.00  0.00    -0.239 NA
ATOM     15  H   ARG A   1       8.112  -6.664  24.533  0.00  0.00    +0.142 HD
ENDBRANCH  13  14
BRANCH  13  16
ATOM     16  C   ARG A   1       6.749  -9.579  24.072  0.00  0.00    +0.224 C 
ATOM     17  O   ARG A   1       6.760 -10.778  23.786  0.00  0.00    -0.287 OA
ENDBRANCH  13  16
ENDBRANCH  12  13
ENDBRANCH  11  12
ENDBRANCH  10  11
ENDBRANCH   1  10
TORSDOF 6
REMARK  Name = ../refined-set-2016/2gvj/2gvj_pocket.pdb
REMARK  262 active torsions:
REMARK  status: ('A' for Active; 'I' for Inactive)
REMARK    1  A    between atoms: _1  and  _3
REMARK    2  A    between atoms: _3  and  _4
REMARK    3  A    between atoms: _3  and  _6
REMARK    4  A    between atoms: _6  and  _7
REMARK    5  A    between atoms: _10  and  _12
REMARK    6  A    between atoms: _12  and  _13
REMARK    7  A    between atoms: _12  and  _15
REMARK    8  A    between atoms: _15  and  _16
REMARK    9  A    between atoms: _19  and  _21
REMARK   10  A    between atoms: _21  and  _22
REMARK   11  A    between atoms: _21  and  _24
REMARK   12  A    between atoms: _24  and  _25
REMARK   13  A    between atoms: _27  and  _29
REMARK   14  A    between atoms: _29  and  _30
REMARK   15  A    between atoms: _29  and  _32
REMARK   16  A    between atoms: _32  and  _33
REMARK   17  A    between atoms: _38  and  _39
REMARK   18  A    between atoms: _41  and  _43
REMARK   19  A    between atoms: _43  and  _44
REMARK   20  A    between atoms: _43  and  _46
REMARK   21  A    between atoms: _46  and  _47
REMARK   22  A    between atoms: _47  and  _48
REMARK   23  A    between atoms: _48  and  _49
REMARK   24  A    between atoms: _49  and  _50
REMARK   25  A    between atoms: _54  and  _56
REMARK   26  A    between atoms: _56  and  _57
REMARK   27  A    between atoms: _56  and  _59
REMARK   28  A    between atoms: _59  and  _60
REMARK   29  A    between atoms: _65  and  _67
REMARK   30  A    between atoms: _67  and  _68
REMARK   31  A    between atoms: _67  and  _70
REMARK   32  A    between atoms: _70  and  _71
REMARK   33  A    between atoms: _71  and  _72
REMARK   34  A    between atoms: _75  and  _77
REMARK   35  A    between atoms: _77  and  _78
REMARK   36  A    between atoms: _77  and  _80
REMARK   37  A    between atoms: _80  and  _81
REMARK   38  A    between atoms: _84  and  _86
REMARK   39  A    between atoms: _86  and  _87
REMARK   40  A    between atoms: _86  and  _89
REMARK   41  A    between atoms: _89  and  _90
REMARK   42  A    between atoms: _90  and  _91
REMARK   43  A    between atoms: _91  and  _92
REMARK   44  A    between atoms: _101  and  _103
REMARK   45  A    between atoms: _103  and  _104
REMARK   46  A    between atoms: _103  and  _106
REMARK   47  A    between atoms: _106  and  _107
REMARK   48  A    between atoms: _110  and  _112
REMARK   49  A    between atoms: _112  and  _113
REMARK   50  A    between atoms: _112  and  _115
REMARK   51  A    between atoms: _115  and  _116
REMARK   52  A    between atoms: _119  and  _121
REMARK   53  A    between atoms: _121  and  _122
REMARK   54  A    between atoms: _124  and  _126
REMARK   55  A    between atoms: _126  and  _127
REMARK   56  A    between atoms: _126  and  _129
REMARK   57  A    between atoms: _129  and  _130
REMARK   58  A    between atoms: _130  and  _131
REMARK   59  A    between atoms: _134  and  _136
REMARK   60  A    between atoms: _136  and  _137
REMARK   61  A    between atoms: _136  and  _139
REMARK   62  A    between atoms: _139  and  _140
REMARK   63  A    between atoms: _145  and  _146
REMARK   64  A    between atoms: _148  and  _150
REMARK   65  A    between atoms: _150  and  _151
REMARK   66  A    between atoms: _150  and  _153
REMARK   67  A    between atoms: _153  and  _154
REMARK   68  A    between atoms: _154  and  _155
REMARK   69  A    between atoms: _155  and  _156
REMARK   70  A    between atoms: _156  and  _157
REMARK   71  A    between atoms: _161  and  _163
REMARK   72  A    between atoms: _163  and  _164
REMARK   73  A    between atoms: _163  and  _166
REMARK   74  A    between atoms: _166  and  _167
REMARK   75  A    between atoms: _170  and  _172
REMARK   76  A    between atoms: _172  and  _173
REMARK   77  A    between atoms: _172  and  _175
REMARK   78  A    between atoms: _175  and  _176
REMARK   79  A    between atoms: _181  and  _183
REMARK   80  A    between atoms: _183  and  _184
REMARK   81  A    between atoms: _183  and  _186
REMARK   82  A    between atoms: _186  and  _187
REMARK   83  A    between atoms: _190  and  _192
REMARK   84  A    between atoms: _192  and  _193
REMARK   85  A    between atoms: _192  and  _195
REMARK   86  A    between atoms: _195  and  _196
REMARK   87  A    between atoms: _202  and  _204
REMARK   88  A    between atoms: _204  and  _205
REMARK   89  A    between atoms: _207  and  _209
REMARK   90  A    between atoms: _209  and  _210
REMARK   91  A    between atoms: _209  and  _212
REMARK   92  A    between atoms: _212  and  _213
REMARK   93  A    between atoms: _218  and  _219
REMARK   94  A    between atoms: _221  and  _223
REMARK   95  A    between atoms: _223  and  _224
REMARK   96  A    between atoms: _223  and  _226
REMARK   97  A    between atoms: _226  and  _227
REMARK   98  A    between atoms: _227  and  _228
REMARK   99  A    between atoms: _228  and  _229
REMARK  100  A    between atoms: _238  and  _240
REMARK  101  A    between atoms: _240  and  _241
REMARK  102  A    between atoms: _243  and  _245
REMARK  103  A    between atoms: _245  and  _246
REMARK  104  A    between atoms: _248  and  _250
REMARK  105  A    between atoms: _250  and  _251
REMARK  106  A    between atoms: _250  and  _253
REMARK  107  A    between atoms: _253  and  _254
REMARK  108  A    between atoms: _257  and  _259
REMARK  109  A    between atoms: _259  and  _260
REMARK  110  A    between atoms: _259  and  _262
REMARK  111  A    between atoms: _262  and  _263
REMARK  112  A    between atoms: _266  and  _268
REMARK  113  A    between atoms: _268  and  _269
REMARK  114  A    between atoms: _268  and  _271
REMARK  115  A    between atoms: _271  and  _272
REMARK  116  A    between atoms: _275  and  _277
REMARK  117  A    between atoms: _277  and  _278
REMARK  118  A    between atoms: _277  and  _280
REMARK  119  A    between atoms: _280  and  _281
REMARK  120  A    between atoms: _286  and  _287
REMARK  121  A    between atoms: _289  and  _291
REMARK  122  A    between atoms: _291  and  _292
REMARK  123  A    between atoms: _291  and  _294
REMARK  124  A    between atoms: _294  and  _295
REMARK  125  A    between atoms: _297  and  _299
REMARK  126  A    between atoms: _299  and  _300
REMARK  127  A    between atoms: _299  and  _302
REMARK  128  A    between atoms: _306  and  _307
REMARK  129  A    between atoms: _312  and  _314
REMARK  130  A    between atoms: _314  and  _315
REMARK  131  A    between atoms: _318  and  _320
REMARK  132  A    between atoms: _320  and  _321
REMARK  133  A    between atoms: _324  and  _326
REMARK  134  A    between atoms: _326  and  _327
REMARK  135  A    between atoms: _326  and  _329
REMARK  136  A    between atoms: _329  and  _330
REMARK  137  A    between atoms: _330  and  _331
REMARK  138  A    between atoms: _334  and  _336
REMARK  139  A    between atoms: _336  and  _337
REMARK  140  A    between atoms: _336  and  _339
REMARK  141  A    between atoms: _339  and  _340
REMARK  142  A    between atoms: _346  and  _347
REMARK  143  A    between atoms: _352  and  _354
REMARK  144  A    between atoms: _354  and  _355
REMARK  145  A    between atoms: _354  and  _357
REMARK  146  A    between atoms: _360  and  _362
REMARK  147  A    between atoms: _362  and  _363
REMARK  148  A    between atoms: _362  and  _365
REMARK  149  A    between atoms: _365  and  _366
REMARK  150  A    between atoms: _368  and  _370
REMARK  151  A    between atoms: _370  and  _371
REMARK  152  A    between atoms: _370  and  _373
REMARK  153  A    between atoms: _376  and  _378
REMARK  154  A    between atoms: _378  and  _379
REMARK  155  A    between atoms: _378  and  _381
REMARK  156  A    between atoms: _384  and  _386
REMARK  157  A    between atoms: _386  and  _387
REMARK  158  A    between atoms: _386  and  _389
REMARK  159  A    between atoms: _389  and  _390
REMARK  160  A    between atoms: _393  and  _395
REMARK  161  A    between atoms: _395  and  _396
REMARK  162  A    between atoms: _395  and  _398
REMARK  163  A    between atoms: _398  and  _399
REMARK  164  A    between atoms: _399  and  _400
REMARK  165  A    between atoms: _405  and  _407
REMARK  166  A    between atoms: _407  and  _408
REMARK  167  A    between atoms: _412  and  _413
REMARK  168  A    between atoms: _418  and  _420
REMARK  169  A    between atoms: _420  and  _421
REMARK  170  A    between atoms: _420  and  _423
REMARK  171  A    between atoms: _423  and  _424
REMARK  172  A    between atoms: _427  and  _429
REMARK  173  A    between atoms: _429  and  _430
REMARK  174  A    between atoms: _429  and  _432
REMARK  175  A    between atoms: _432  and  _433
REMARK  176  A    between atoms: _436  and  _438
REMARK  177  A    between atoms: _438  and  _439
REMARK  178  A    between atoms: _438  and  _441
REMARK  179  A    between atoms: _441  and  _442
REMARK  180  A    between atoms: _445  and  _447
REMARK  181  A    between atoms: _447  and  _448
REMARK  182  A    between atoms: _447  and  _450
REMARK  183  A    between atoms: _450  and  _451
REMARK  184  A    between atoms: _451  and  _452
REMARK  185  A    between atoms: _452  and  _453
REMARK  186  A    between atoms: _463  and  _464
REMARK  187  A    between atoms: _469  and  _471
REMARK  188  A    between atoms: _471  and  _472
REMARK  189  A    between atoms: _471  and  _474
REMARK  190  A    between atoms: _474  and  _475
REMARK  191  A    between atoms: _478  and  _480
REMARK  192  A    between atoms: _480  and  _481
REMARK  193  A    between atoms: _480  and  _483
REMARK  194  A    between atoms: _483  and  _484
REMARK  195  A    between atoms: _487  and  _489
REMARK  196  A    between atoms: _489  and  _490
REMARK  197  A    between atoms: _489  and  _492
REMARK  198  A    between atoms: _492  and  _493
REMARK  199  A    between atoms: _497  and  _498
REMARK  200  A    between atoms: _503  and  _505
REMARK  201  A    between atoms: _505  and  _506
REMARK  202  A    between atoms: _505  and  _508
REMARK  203  A    between atoms: _508  and  _509
REMARK  204  A    between atoms: _512  and  _514
REMARK  205  A    between atoms: _514  and  _515
REMARK  206  A    between atoms: _514  and  _517
REMARK  207  A    between atoms: _517  and  _518
REMARK  208  A    between atoms: _518  and  _519
REMARK  209  A    between atoms: _519  and  _520
REMARK  210  A    between atoms: _529  and  _531
REMARK  211  A    between atoms: _531  and  _532
REMARK  212  A    between atoms: _531  and  _534
REMARK  213  A    between atoms: _537  and  _539
REMARK  214  A    between atoms: _539  and  _540
REMARK  215  A    between atoms: _539  and  _542
REMARK  216  A    between atoms: _542  and  _543
REMARK  217  A    between atoms: _546  and  _548
REMARK  218  A    between atoms: _548  and  _549
REMARK  219  A    between atoms: _548  and  _551
REMARK  220  A    between atoms: _551  and  _552
REMARK  221  A    between atoms: _552  and  _553
REMARK  222  A    between atoms: _558  and  _560
REMARK  223  A    between atoms: _560  and  _561
REMARK  224  A    between atoms: _563  and  _565
REMARK  225  A    between atoms: _565  and  _566
REMARK  226  A    between atoms: _565  and  _568
REMARK  227  A    between atoms: _568  and  _569
REMARK  228  A    between atoms: _572  and  _574
REMARK  229  A    between atoms: _574  and  _575
REMARK  230  A    between atoms: _574  and  _577
REMARK  231  A    between atoms: _577  and  _578
REMARK  232  A    between atoms: _580  and  _582
REMARK  233  A    between atoms: _582  and  _583
REMARK  234  A    between atoms: _582  and  _585
REMARK  235  A    between atoms: _585  and  _586
REMARK  236  A    between atoms: _589  and  _591
REMARK  237  A    between atoms: _591  and  _592
REMARK  238  A    between atoms: _591  and  _594
REMARK  239  A    between atoms: _594  and  _595
REMARK  240  A    between atoms: _595  and  _596
REMARK  241  A    between atoms: _599  and  _601
REMARK  242  A    between atoms: _601  and  _602
REMARK  243  A    between atoms: _601  and  _604
REMARK  244  A    between atoms: _604  and  _605
REMARK  245  A    between atoms: _610  and  _612
REMARK  246  A    between atoms: _612  and  _613
REMARK  247  A    between atoms: _612  and  _615
REMARK  248  A    between atoms: _615  and  _616
REMARK  249  A    between atoms: _619  and  _621
REMARK  250  A    between atoms: _621  and  _622
REMARK  251  A    between atoms: _625  and  _627
REMARK  252  A    between atoms: _627  and  _628
REMARK  253  A    between atoms: _627  and  _630
REMARK  254  A    between atoms: _630  and  _631
REMARK  255  A    between atoms: _637  and  _639
REMARK  256  A    between atoms: _639  and  _640
REMARK  257  A    between atoms: _642  and  _644
REMARK  258  A    between atoms: _644  and  _645
REMARK  259  A    between atoms: _644  and  _647
REMARK  260  A    between atoms: _647  and  _648
REMARK  261  A    between atoms: _650  and  _652
REMARK  262  A    between atoms: _652  and  _653
REMARK                            x       y       z     vdW  Elec       q    Type
REMARK                         _______ _______ _______ _____ _____    ______ ____
ROOT
ATOM      1  CA  LEU A   1      -2.520   6.741  48.361  0.00  0.00    +0.133 C 
ENDROOT
BRANCH   1   2
ATOM      2  N   LEU A   1      -3.154   6.975  47.067  0.00  0.00    -0.239 NA
ATOM      3  H   LEU A   1      -2.559   7.169  46.237  0.00  0.00    +0.142 HD
ENDBRANCH   1   2
BRANCH   1   4
ATOM      4  C   LEU A   1      -2.941   7.822  49.371  0.00  0.00    +0.224 C 
ATOM      5  O   LEU A   1      -3.326   7.499  50.499  0.00  0.00    -0.287 OA
ENDBRANCH   1   4
BRANCH   1   6
ATOM      6  CB  LEU A   1      -0.994   6.685  48.225  0.00  0.00    +0.025 C 
BRANCH   6   7
ATOM      7  CG  LEU A   1      -0.177   6.191  49.432  0.00  0.00    +0.002 C 
ATOM      8  CD2 LEU A   1      -0.535   4.754  49.800  0.00  0.00    +0.000 C 
ATOM      9  CD1 LEU A   1       1.307   6.296  49.159  0.00  0.00    +0.000 C 
ENDBRANCH   6   7
ENDBRANCH   1   6
TORSDOF 4
REMARK  Name = ../refined-set-2016/2gvj/2gvj_pocket.pdb
REMARK  262 active torsions:
REMARK  status: ('A' for Active; 'I' for Inactive)
REMARK    1  A    between atoms: _1  and  _3
REMARK    2  A    between atoms: _3  and  _4
REMARK    3  A    between atoms: _3  and  _6
REMARK    4  A    between atoms: _6  and  _7
REMARK    5  A    between atoms: _10  and  _12
REMARK    6  A    between atoms: _12  and  _13
REMARK    7  A    between atoms: _12  and  _15
REMARK    8  A    between atoms: _15  and  _16
REMARK    9  A    between atoms: _19  and  _21
REMARK   10  A    between atoms: _21  and  _22
REMARK   11  A    between atoms: _21  and  _24
REMARK   12  A    between atoms: _24  and  _25
REMARK   13  A    between atoms: _27  and  _29
REMARK   14  A    between atoms: _29  and  _30
REMARK   15  A    between atoms: _29  and  _32
REMARK   16  A    between atoms: _32  and  _33
REMARK   17  A    between atoms: _38  and  _39
REMARK   18  A    between atoms: _41  and  _43
REMARK   19  A    between atoms: _43  and  _44
REMARK   20  A    between atoms: _43  and  _46
REMARK   21  A    between atoms: _46  and  _47
REMARK   22  A    between atoms: _47  and  _48
REMARK   23  A    between atoms: _48  and  _49
REMARK   24  A    between atoms: _49  and  _50
REMARK   25  A    between atoms: _54  and  _56
REMARK   26  A    between atoms: _56  and  _57
REMARK   27  A    between atoms: _56  and  _59
REMARK   28  A    between atoms: _59  and  _60
REMARK   29  A    between atoms: _65  and  _67
REMARK   30  A    between atoms: _67  and  _68
REMARK   31  A    between atoms: _67  and  _70
REMARK   32  A    between atoms: _70  and  _71
REMARK   33  A    between atoms: _71  and  _72
REMARK   34  A    between atoms: _75  and  _77
REMARK   35  A    between atoms: _77  and  _78
REMARK   36  A    between atoms: _77  and  _80
REMARK   37  A    between atoms: _80  and  _81
REMARK   38  A    between atoms: _84  and  _86
REMARK   39  A    between atoms: _86  and  _87
REMARK   40  A    between atoms: _86  and  _89
REMARK   41  A    between atoms: _89  and  _90
REMARK   42  A    between atoms: _90  and  _91
REMARK   43  A    between atoms: _91  and  _92
REMARK   44  A    between atoms: _101  and  _103
REMARK   45  A    between atoms: _103  and  _104
REMARK   46  A    between atoms: _103  and  _106
REMARK   47  A    between atoms: _106  and  _107
REMARK   48  A    between atoms: _110  and  _112
REMARK   49  A    between atoms: _112  and  _113
REMARK   50  A    between atoms: _112  and  _115
REMARK   51  A    between atoms: _115  and  _116
REMARK   52  A    between atoms: _119  and  _121
REMARK   53  A    between atoms: _121  and  _122
REMARK   54  A    between atoms: _124  and  _126
REMARK   55  A    between atoms: _126  and  _127
REMARK   56  A    between atoms: _126  and  _129
REMARK   57  A    between atoms: _129  and  _130
REMARK   58  A    between atoms: _130  and  _131
REMARK   59  A    between atoms: _134  and  _136
REMARK   60  A    between atoms: _136  and  _137
REMARK   61  A    between atoms: _136  and  _139
REMARK   62  A    between atoms: _139  and  _140
REMARK   63  A    between atoms: _145  and  _146
REMARK   64  A    between atoms: _148  and  _150
REMARK   65  A    between atoms: _150  and  _151
REMARK   66  A    between atoms: _150  and  _153
REMARK   67  A    between atoms: _153  and  _154
REMARK   68  A    between atoms: _154  and  _155
REMARK   69  A    between atoms: _155  and  _156
REMARK   70  A    between atoms: _156  and  _157
REMARK   71  A    between atoms: _161  and  _163
REMARK   72  A    between atoms: _163  and  _164
REMARK   73  A    between atoms: _163  and  _166
REMARK   74  A    between atoms: _166  and  _167
REMARK   75  A    between atoms: _170  and  _172
REMARK   76  A    between atoms: _172  and  _173
REMARK   77  A    between atoms: _172  and  _175
REMARK   78  A    between atoms: _175  and  _176
REMARK   79  A    between atoms: _181  and  _183
REMARK   80  A    between atoms: _183  and  _184
REMARK   81  A    between atoms: _183  and  _186
REMARK   82  A    between atoms: _186  and  _187
REMARK   83  A    between atoms: _190  and  _192
REMARK   84  A    between atoms: _192  and  _193
REMARK   85  A    between atoms: _192  and  _195
REMARK   86  A    between atoms: _195  and  _196
REMARK   87  A    between atoms: _202  and  _204
REMARK   88  A    between atoms: _204  and  _205
REMARK   89  A    between atoms: _207  and  _209
REMARK   90  A    between atoms: _209  and  _210
REMARK   91  A    between atoms: _209  and  _212
REMARK   92  A    between atoms: _212  and  _213
REMARK   93  A    between atoms: _218  and  _219
REMARK   94  A    between atoms: _221  and  _223
REMARK   95  A    between atoms: _223  and  _224
REMARK   96  A    between atoms: _223  and  _226
REMARK   97  A    between atoms: _226  and  _227
REMARK   98  A    between atoms: _227  and  _228
REMARK   99  A    between atoms: _228  and  _229
REMARK  100  A    between atoms: _238  and  _240
REMARK  101  A    between atoms: _240  and  _241
REMARK  102  A    between atoms: _243  and  _245
REMARK  103  A    between atoms: _245  and  _246
REMARK  104  A    between atoms: _248  and  _250
REMARK  105  A    between atoms: _250  and  _251
REMARK  106  A    between atoms: _250  and  _253
REMARK  107  A    between atoms: _253  and  _254
REMARK  108  A    between atoms: _257  and  _259
REMARK  109  A    between atoms: _259  and  _260
REMARK  110  A    between atoms: _259  and  _262
REMARK  111  A    between atoms: _262  and  _263
REMARK  112  A    between atoms: _266  and  _268
REMARK  113  A    between atoms: _268  and  _269
REMARK  114  A    between atoms: _268  and  _271
REMARK  115  A    between atoms: _271  and  _272
REMARK  116  A    between atoms: _275  and  _277
REMARK  117  A    between atoms: _277  and  _278
REMARK  118  A    between atoms: _277  and  _280
REMARK  119  A    between atoms: _280  and  _281
REMARK  120  A    between atoms: _286  and  _287
REMARK  121  A    between atoms: _289  and  _291
REMARK  122  A    between atoms: _291  and  _292
REMARK  123  A    between atoms: _291  and  _294
REMARK  124  A    between atoms: _294  and  _295
REMARK  125  A    between atoms: _297  and  _299
REMARK  126  A    between atoms: _299  and  _300
REMARK  127  A    between atoms: _299  and  _302
REMARK  128  A    between atoms: _306  and  _307
REMARK  129  A    between atoms: _312  and  _314
REMARK  130  A    between atoms: _314  and  _315
REMARK  131  A    between atoms: _318  and  _320
REMARK  132  A    between atoms: _320  and  _321
REMARK  133  A    between atoms: _324  and  _326
REMARK  134  A    between atoms: _326  and  _327
REMARK  135  A    between atoms: _326  and  _329
REMARK  136  A    between atoms: _329  and  _330
REMARK  137  A    between atoms: _330  and  _331
REMARK  138  A    between atoms: _334  and  _336
REMARK  139  A    between atoms: _336  and  _337
REMARK  140  A    between atoms: _336  and  _339
REMARK  141  A    between atoms: _339  and  _340
REMARK  142  A    between atoms: _346  and  _347
REMARK  143  A    between atoms: _352  and  _354
REMARK  144  A    between atoms: _354  and  _355
REMARK  145  A    between atoms: _354  and  _357
REMARK  146  A    between atoms: _360  and  _362
REMARK  147  A    between atoms: _362  and  _363
REMARK  148  A    between atoms: _362  and  _365
REMARK  149  A    between atoms: _365  and  _366
REMARK  150  A    between atoms: _368  and  _370
REMARK  151  A    between atoms: _370  and  _371
REMARK  152  A    between atoms: _370  and  _373
REMARK  153  A    between atoms: _376  and  _378
REMARK  154  A    between atoms: _378  and  _379
REMARK  155  A    between atoms: _378  and  _381
REMARK  156  A    between atoms: _384  and  _386
REMARK  157  A    between atoms: _386  and  _387
REMARK  158  A    between atoms: _386  and  _389
REMARK  159  A    between atoms: _389  and  _390
REMARK  160  A    between atoms: _393  and  _395
REMARK  161  A    between atoms: _395  and  _396
REMARK  162  A    between atoms: _395  and  _398
REMARK  163  A    between atoms: _398  and  _399
REMARK  164  A    between atoms: _399  and  _400
REMARK  165  A    between atoms: _405  and  _407
REMARK  166  A    between atoms: _407  and  _408
REMARK  167  A    between atoms: _412  and  _413
REMARK  168  A    between atoms: _418  and  _420
REMARK  169  A    between atoms: _420  and  _421
REMARK  170  A    between atoms: _420  and  _423
REMARK  171  A    between atoms: _423  and  _424
REMARK  172  A    between atoms: _427  and  _429
REMARK  173  A    between atoms: _429  and  _430
REMARK  174  A    between atoms: _429  and  _432
REMARK  175  A    between atoms: _432  and  _433
REMARK  176  A    between atoms: _436  and  _438
REMARK  177  A    between atoms: _438  and  _439
REMARK  178  A    between atoms: _438  and  _441
REMARK  179  A    between atoms: _441  and  _442
REMARK  180  A    between atoms: _445  and  _447
REMARK  181  A    between atoms: _447  and  _448
REMARK  182  A    between atoms: _447  and  _450
REMARK  183  A    between atoms: _450  and  _451
REMARK  184  A    between atoms: _451  and  _452
REMARK  185  A    between atoms: _452  and  _453
REMARK  186  A    between atoms: _463  and  _464
REMARK  187  A    between atoms: _469  and  _471
REMARK  188  A    between atoms: _471  and  _472
REMARK  189  A    between atoms: _471  and  _474
REMARK  190  A    between atoms: _474  and  _475
REMARK  191  A    between atoms: _478  and  _480
REMARK  192  A    between atoms: _480  and  _481
REMARK  193  A    between atoms: _480  and  _483
REMARK  194  A    between atoms: _483  and  _484
REMARK  195  A    between atoms: _487  and  _489
REMARK  196  A    between atoms: _489  and  _490
REMARK  197  A    between atoms: _489  and  _492
REMARK  198  A    between atoms: _492  and  _493
REMARK  199  A    between atoms: _497  and  _498
REMARK  200  A    between atoms: _503  and  _505
REMARK  201  A    between atoms: _505  and  _506
REMARK  202  A    between atoms: _505  and  _508
REMARK  203  A    between atoms: _508  and  _509
REMARK  204  A    between atoms: _512  and  _514
REMARK  205  A    between atoms: _514  and  _515
REMARK  206  A    between atoms: _514  and  _517
REMARK  207  A    between atoms: _517  and  _518
REMARK  208  A    between atoms: _518  and  _519
REMARK  209  A    between atoms: _519  and  _520
REMARK  210  A    between atoms: _529  and  _531
REMARK  211  A    between atoms: _531  and  _532
REMARK  212  A    between atoms: _531  and  _534
REMARK  213  A    between atoms: _537  and  _539
REMARK  214  A    between atoms: _539  and  _540
REMARK  215  A    between atoms: _539  and  _542
REMARK  216  A    between atoms: _542  and  _543
REMARK  217  A    between atoms: _546  and  _548
REMARK  218  A    between atoms: _548  and  _549
REMARK  219  A    between atoms: _548  and  _551
REMARK  220  A    between atoms: _551  and  _552
REMARK  221  A    between atoms: _552  and  _553
REMARK  222  A    between atoms: _558  and  _560
REMARK  223  A    between atoms: _560  and  _561
REMARK  224  A    between atoms: _563  and  _565
REMARK  225  A    between atoms: _565  and  _566
REMARK  226  A    between atoms: _565  and  _568
REMARK  227  A    between atoms: _568  and  _569
REMARK  228  A    between atoms: _572  and  _574
REMARK  229  A    between atoms: _574  and  _575
REMARK  230  A    between atoms: _574  and  _577
REMARK  231  A    between atoms: _577  and  _578
REMARK  232  A    between atoms: _580  and  _582
REMARK  233  A    between atoms: _582  and  _583
REMARK  234  A    between atoms: _582  and  _585
REMARK  235  A    between atoms: _585  and  _586
REMARK  236  A    between atoms: _589  and  _591
REMARK  237  A    between atoms: _591  and  _592
REMARK  238  A    between atoms: _591  and  _594
REMARK  239  A    between atoms: _594  and  _595
REMARK  240  A    between atoms: _595  and  _596
REMARK  241  A    between atoms: _599  and  _601
REMARK  242  A    between atoms: _601  and  _602
REMARK  243  A    between atoms: _601  and  _604
REMARK  244  A    between atoms: _604  and  _605
REMARK  245  A    between atoms: _610  and  _612
REMARK  246  A    between atoms: _612  and  _613
REMARK  247  A    between atoms: _612  and  _615
REMARK  248  A    between atoms: _615  and  _616
REMARK  249  A    between atoms: _619  and  _621
REMARK  250  A    between atoms: _621  and  _622
REMARK  251  A    between atoms: _625  and  _627
REMARK  252  A    between atoms: _627  and  _628
REMARK  253  A    between atoms: _627  and  _630
REMARK  254  A    between atoms: _630  and  _631
REMARK  255  A    between atoms: _637  and  _639
REMARK  256  A    between atoms: _639  and  _640
REMARK  257  A    between atoms: _642  and  _644
REMARK  258  A    between atoms: _644  and  _645
REMARK  259  A    between atoms: _644  and  _647
REMARK  260  A    between atoms: _647  and  _648
REMARK  261  A    between atoms: _650  and  _652
REMARK  262  A    between atoms: _652  and  _653
REMARK                            x       y       z     vdW  Elec       q    Type
REMARK                         _______ _______ _______ _____ _____    ______ ____
ROOT
ATOM      1  CA  ASP A   1       4.434   7.134  52.957  0.00  0.00    +0.156 C 
ENDROOT
BRANCH   1   2
ATOM      2  C   ASP A   1       4.608   5.950  52.017  0.00  0.00    +0.239 C 
ATOM      3  O   ASP A   1       3.653   5.210  51.745  0.00  0.00    -0.274 OA
ATOM      4  N   GLY A   2       5.830   5.788  51.518  0.00  0.00    -0.297 N 
ATOM      5  H   GLY A   2       6.565   6.487  51.746  0.00  0.00    +0.150 HD
BRANCH   4   6
ATOM      6  CA  GLY A   2       6.168   4.661  50.662  0.00  0.00    +0.163 C 
BRANCH   6   7
ATOM      7  C   GLY A   2       5.829   4.822  49.190  0.00  0.00    +0.229 C 
ATOM      8  O   GLY A   2       5.867   3.847  48.454  0.00  0.00    -0.286 OA
ENDBRANCH   6   7
ENDBRANCH   4   6
ENDBRANCH   1   2
BRANCH   1   9
ATOM      9  N   ASP A   1       3.377   8.037  52.487  0.00  0.00    -0.238 NA
ATOM     10  H   ASP A   1       2.587   8.264  53.124  0.00  0.00    +0.142 HD
ENDBRANCH   1   9
BRANCH   1  11
ATOM     11  CB  ASP A   1       4.145   6.626  54.376  0.00  0.00    +0.140 C 
BRANCH  11  12
ATOM     12  CG  ASP A   1       4.127   7.738  55.406  0.00  0.00    +0.367 C 
ATOM     13  OD2 ASP A   1       3.566   7.616  56.516  0.00  0.00    -0.246 OA
ATOM     14  OD1 ASP A   1       4.691   8.818  55.148  0.00  0.00    -0.246 OA
ENDBRANCH  11  12
ENDBRANCH   1  11
TORSDOF 6
REMARK  Name = ../refined-set-2016/2gvj/2gvj_pocket.pdb
REMARK  262 active torsions:
REMARK  status: ('A' for Active; 'I' for Inactive)
REMARK    1  A    between atoms: _1  and  _3
REMARK    2  A    between atoms: _3  and  _4
REMARK    3  A    between atoms: _3  and  _6
REMARK    4  A    between atoms: _6  and  _7
REMARK    5  A    between atoms: _10  and  _12
REMARK    6  A    between atoms: _12  and  _13
REMARK    7  A    between atoms: _12  and  _15
REMARK    8  A    between atoms: _15  and  _16
REMARK    9  A    between atoms: _19  and  _21
REMARK   10  A    between atoms: _21  and  _22
REMARK   11  A    between atoms: _21  and  _24
REMARK   12  A    between atoms: _24  and  _25
REMARK   13  A    between atoms: _27  and  _29
REMARK   14  A    between atoms: _29  and  _30
REMARK   15  A    between atoms: _29  and  _32
REMARK   16  A    between atoms: _32  and  _33
REMARK   17  A    between atoms: _38  and  _39
REMARK   18  A    between atoms: _41  and  _43
REMARK   19  A    between atoms: _43  and  _44
REMARK   20  A    between atoms: _43  and  _46
REMARK   21  A    between atoms: _46  and  _47
REMARK   22  A    between atoms: _47  and  _48
REMARK   23  A    between atoms: _48  and  _49
REMARK   24  A    between atoms: _49  and  _50
REMARK   25  A    between atoms: _54  and  _56
REMARK   26  A    between atoms: _56  and  _57
REMARK   27  A    between atoms: _56  and  _59
REMARK   28  A    between atoms: _59  and  _60
REMARK   29  A    between atoms: _65  and  _67
REMARK   30  A    between atoms: _67  and  _68
REMARK   31  A    between atoms: _67  and  _70
REMARK   32  A    between atoms: _70  and  _71
REMARK   33  A    between atoms: _71  and  _72
REMARK   34  A    between atoms: _75  and  _77
REMARK   35  A    between atoms: _77  and  _78
REMARK   36  A    between atoms: _77  and  _80
REMARK   37  A    between atoms: _80  and  _81
REMARK   38  A    between atoms: _84  and  _86
REMARK   39  A    between atoms: _86  and  _87
REMARK   40  A    between atoms: _86  and  _89
REMARK   41  A    between atoms: _89  and  _90
REMARK   42  A    between atoms: _90  and  _91
REMARK   43  A    between atoms: _91  and  _92
REMARK   44  A    between atoms: _101  and  _103
REMARK   45  A    between atoms: _103  and  _104
REMARK   46  A    between atoms: _103  and  _106
REMARK   47  A    between atoms: _106  and  _107
REMARK   48  A    between atoms: _110  and  _112
REMARK   49  A    between atoms: _112  and  _113
REMARK   50  A    between atoms: _112  and  _115
REMARK   51  A    between atoms: _115  and  _116
REMARK   52  A    between atoms: _119  and  _121
REMARK   53  A    between atoms: _121  and  _122
REMARK   54  A    between atoms: _124  and  _126
REMARK   55  A    between atoms: _126  and  _127
REMARK   56  A    between atoms: _126  and  _129
REMARK   57  A    between atoms: _129  and  _130
REMARK   58  A    between atoms: _130  and  _131
REMARK   59  A    between atoms: _134  and  _136
REMARK   60  A    between atoms: _136  and  _137
REMARK   61  A    between atoms: _136  and  _139
REMARK   62  A    between atoms: _139  and  _140
REMARK   63  A    between atoms: _145  and  _146
REMARK   64  A    between atoms: _148  and  _150
REMARK   65  A    between atoms: _150  and  _151
REMARK   66  A    between atoms: _150  and  _153
REMARK   67  A    between atoms: _153  and  _154
REMARK   68  A    between atoms: _154  and  _155
REMARK   69  A    between atoms: _155  and  _156
REMARK   70  A    between atoms: _156  and  _157
REMARK   71  A    between atoms: _161  and  _163
REMARK   72  A    between atoms: _163  and  _164
REMARK   73  A    between atoms: _163  and  _166
REMARK   74  A    between atoms: _166  and  _167
REMARK   75  A    between atoms: _170  and  _172
REMARK   76  A    between atoms: _172  and  _173
REMARK   77  A    between atoms: _172  and  _175
REMARK   78  A    between atoms: _175  and  _176
REMARK   79  A    between atoms: _181  and  _183
REMARK   80  A    between atoms: _183  and  _184
REMARK   81  A    between atoms: _183  and  _186
REMARK   82  A    between atoms: _186  and  _187
REMARK   83  A    between atoms: _190  and  _192
REMARK   84  A    between atoms: _192  and  _193
REMARK   85  A    between atoms: _192  and  _195
REMARK   86  A    between atoms: _195  and  _196
REMARK   87  A    between atoms: _202  and  _204
REMARK   88  A    between atoms: _204  and  _205
REMARK   89  A    between atoms: _207  and  _209
REMARK   90  A    between atoms: _209  and  _210
REMARK   91  A    between atoms: _209  and  _212
REMARK   92  A    between atoms: _212  and  _213
REMARK   93  A    between atoms: _218  and  _219
REMARK   94  A    between atoms: _221  and  _223
REMARK   95  A    between atoms: _223  and  _224
REMARK   96  A    between atoms: _223  and  _226
REMARK   97  A    between atoms: _226  and  _227
REMARK   98  A    between atoms: _227  and  _228
REMARK   99  A    between atoms: _228  and  _229
REMARK  100  A    between atoms: _238  and  _240
REMARK  101  A    between atoms: _240  and  _241
REMARK  102  A    between atoms: _243  and  _245
REMARK  103  A    between atoms: _245  and  _246
REMARK  104  A    between atoms: _248  and  _250
REMARK  105  A    between atoms: _250  and  _251
REMARK  106  A    between atoms: _250  and  _253
REMARK  107  A    between atoms: _253  and  _254
REMARK  108  A    between atoms: _257  and  _259
REMARK  109  A    between atoms: _259  and  _260
REMARK  110  A    between atoms: _259  and  _262
REMARK  111  A    between atoms: _262  and  _263
REMARK  112  A    between atoms: _266  and  _268
REMARK  113  A    between atoms: _268  and  _269
REMARK  114  A    between atoms: _268  and  _271
REMARK  115  A    between atoms: _271  and  _272
REMARK  116  A    between atoms: _275  and  _277
REMARK  117  A    between atoms: _277  and  _278
REMARK  118  A    between atoms: _277  and  _280
REMARK  119  A    between atoms: _280  and  _281
REMARK  120  A    between atoms: _286  and  _287
REMARK  121  A    between atoms: _289  and  _291
REMARK  122  A    between atoms: _291  and  _292
REMARK  123  A    between atoms: _291  and  _294
REMARK  124  A    between atoms: _294  and  _295
REMARK  125  A    between atoms: _297  and  _299
REMARK  126  A    between atoms: _299  and  _300
REMARK  127  A    between atoms: _299  and  _302
REMARK  128  A    between atoms: _306  and  _307
REMARK  129  A    between atoms: _312  and  _314
REMARK  130  A    between atoms: _314  and  _315
REMARK  131  A    between atoms: _318  and  _320
REMARK  132  A    between atoms: _320  and  _321
REMARK  133  A    between atoms: _324  and  _326
REMARK  134  A    between atoms: _326  and  _327
REMARK  135  A    between atoms: _326  and  _329
REMARK  136  A    between atoms: _329  and  _330
REMARK  137  A    between atoms: _330  and  _331
REMARK  138  A    between atoms: _334  and  _336
REMARK  139  A    between atoms: _336  and  _337
REMARK  140  A    between atoms: _336  and  _339
REMARK  141  A    between atoms: _339  and  _340
REMARK  142  A    between atoms: _346  and  _347
REMARK  143  A    between atoms: _352  and  _354
REMARK  144  A    between atoms: _354  and  _355
REMARK  145  A    between atoms: _354  and  _357
REMARK  146  A    between atoms: _360  and  _362
REMARK  147  A    between atoms: _362  and  _363
REMARK  148  A    between atoms: _362  and  _365
REMARK  149  A    between atoms: _365  and  _366
REMARK  150  A    between atoms: _368  and  _370
REMARK  151  A    between atoms: _370  and  _371
REMARK  152  A    between atoms: _370  and  _373
REMARK  153  A    between atoms: _376  and  _378
REMARK  154  A    between atoms: _378  and  _379
REMARK  155  A    between atoms: _378  and  _381
REMARK  156  A    between atoms: _384  and  _386
REMARK  157  A    between atoms: _386  and  _387
REMARK  158  A    between atoms: _386  and  _389
REMARK  159  A    between atoms: _389  and  _390
REMARK  160  A    between atoms: _393  and  _395
REMARK  161  A    between atoms: _395  and  _396
REMARK  162  A    between atoms: _395  and  _398
REMARK  163  A    between atoms: _398  and  _399
REMARK  164  A    between atoms: _399  and  _400
REMARK  165  A    between atoms: _405  and  _407
REMARK  166  A    between atoms: _407  and  _408
REMARK  167  A    between atoms: _412  and  _413
REMARK  168  A    between atoms: _418  and  _420
REMARK  169  A    between atoms: _420  and  _421
REMARK  170  A    between atoms: _420  and  _423
REMARK  171  A    between atoms: _423  and  _424
REMARK  172  A    between atoms: _427  and  _429
REMARK  173  A    between atoms: _429  and  _430
REMARK  174  A    between atoms: _429  and  _432
REMARK  175  A    between atoms: _432  and  _433
REMARK  176  A    between atoms: _436  and  _438
REMARK  177  A    between atoms: _438  and  _439
REMARK  178  A    between atoms: _438  and  _441
REMARK  179  A    between atoms: _441  and  _442
REMARK  180  A    between atoms: _445  and  _447
REMARK  181  A    between atoms: _447  and  _448
REMARK  182  A    between atoms: _447  and  _450
REMARK  183  A    between atoms: _450  and  _451
REMARK  184  A    between atoms: _451  and  _452
REMARK  185  A    between atoms: _452  and  _453
REMARK  186  A    between atoms: _463  and  _464
REMARK  187  A    between atoms: _469  and  _471
REMARK  188  A    between atoms: _471  and  _472
REMARK  189  A    between atoms: _471  and  _474
REMARK  190  A    between atoms: _474  and  _475
REMARK  191  A    between atoms: _478  and  _480
REMARK  192  A    between atoms: _480  and  _481
REMARK  193  A    between atoms: _480  and  _483
REMARK  194  A    between atoms: _483  and  _484
REMARK  195  A    between atoms: _487  and  _489
REMARK  196  A    between atoms: _489  and  _490
REMARK  197  A    between atoms: _489  and  _492
REMARK  198  A    between atoms: _492  and  _493
REMARK  199  A    between atoms: _497  and  _498
REMARK  200  A    between atoms: _503  and  _505
REMARK  201  A    between atoms: _505  and  _506
REMARK  202  A    between atoms: _505  and  _508
REMARK  203  A    between atoms: _508  and  _509
REMARK  204  A    between atoms: _512  and  _514
REMARK  205  A    between atoms: _514  and  _515
REMARK  206  A    between atoms: _514  and  _517
REMARK  207  A    between atoms: _517  and  _518
REMARK  208  A    between atoms: _518  and  _519
REMARK  209  A    between atoms: _519  and  _520
REMARK  210  A    between atoms: _529  and  _531
REMARK  211  A    between atoms: _531  and  _532
REMARK  212  A    between atoms: _531  and  _534
REMARK  213  A    between atoms: _537  and  _539
REMARK  214  A    between atoms: _539  and  _540
REMARK  215  A    between atoms: _539  and  _542
REMARK  216  A    between atoms: _542  and  _543
REMARK  217  A    between atoms: _546  and  _548
REMARK  218  A    between atoms: _548  and  _549
REMARK  219  A    between atoms: _548  and  _551
REMARK  220  A    between atoms: _551  and  _552
REMARK  221  A    between atoms: _552  and  _553
REMARK  222  A    between atoms: _558  and  _560
REMARK  223  A    between atoms: _560  and  _561
REMARK  224  A    between atoms: _563  and  _565
REMARK  225  A    between atoms: _565  and  _566
REMARK  226  A    between atoms: _565  and  _568
REMARK  227  A    between atoms: _568  and  _569
REMARK  228  A    between atoms: _572  and  _574
REMARK  229  A    between atoms: _574  and  _575
REMARK  230  A    between atoms: _574  and  _577
REMARK  231  A    between atoms: _577  and  _578
REMARK  232  A    between atoms: _580  and  _582
REMARK  233  A    between atoms: _582  and  _583
REMARK  234  A    between atoms: _582  and  _585
REMARK  235  A    between atoms: _585  and  _586
REMARK  236  A    between atoms: _589  and  _591
REMARK  237  A    between atoms: _591  and  _592
REMARK  238  A    between atoms: _591  and  _594
REMARK  239  A    between atoms: _594  and  _595
REMARK  240  A    between atoms: _595  and  _596
REMARK  241  A    between atoms: _599  and  _601
REMARK  242  A    between atoms: _601  and  _602
REMARK  243  A    between atoms: _601  and  _604
REMARK  244  A    between atoms: _604  and  _605
REMARK  245  A    between atoms: _610  and  _612
REMARK  246  A    between atoms: _612  and  _613
REMARK  247  A    between atoms: _612  and  _615
REMARK  248  A    between atoms: _615  and  _616
REMARK  249  A    between atoms: _619  and  _621
REMARK  250  A    between atoms: _621  and  _622
REMARK  251  A    between atoms: _625  and  _627
REMARK  252  A    between atoms: _627  and  _628
REMARK  253  A    between atoms: _627  and  _630
REMARK  254  A    between atoms: _630  and  _631
REMARK  255  A    between atoms: _637  and  _639
REMARK  256  A    between atoms: _639  and  _640
REMARK  257  A    between atoms: _642  and  _644
REMARK  258  A    between atoms: _644  and  _645
REMARK  259  A    between atoms: _644  and  _647
REMARK  260  A    between atoms: _647  and  _648
REMARK  261  A    between atoms: _650  and  _652
REMARK  262  A    between atoms: _652  and  _653
REMARK                            x       y       z     vdW  Elec       q    Type
REMARK                         _______ _______ _______ _____ _____    ______ ____
ROOT
ATOM      1  CA  ASP A   6      11.168  -1.538  37.469  0.00  0.00    +0.160 C 
ENDROOT
BRANCH   1   2
ATOM      2  C   ASP A   6      11.504  -3.023  37.274  0.00  0.00    +0.241 C 
ATOM      3  O   ASP A   6      12.465  -3.541  37.862  0.00  0.00    -0.273 OA
ATOM      4  N   PHE A   7      10.700  -3.678  36.430  0.00  0.00    -0.297 N 
ATOM      5  H   PHE A   7       9.929  -3.138  35.988  0.00  0.00    +0.150 HD
BRANCH   4   6
ATOM      6  CA  PHE A   7      10.818  -5.100  36.077  0.00  0.00    +0.153 C 
BRANCH   6   7
ATOM      7  C   PHE A   7      11.315  -5.278  34.621  0.00  0.00    +0.241 C 
ATOM      8  O   PHE A   7      11.323  -6.398  34.093  0.00  0.00    -0.273 OA
ATOM      9  N   GLY A   8      11.729  -4.185  33.980  0.00  0.00    -0.295 N 
ATOM     10  H   GLY A   8      11.982  -3.336  34.525  0.00  0.00    +0.150 HD
BRANCH   9  11
ATOM     11  CA  GLY A   8      11.832  -4.162  32.520  0.00  0.00    +0.176 C 
BRANCH  11  12
ATOM     12  C   GLY A   8      13.131  -4.563  31.859  0.00  0.00    +0.243 C 
ATOM     13  N   TYR A   9      14.073  -5.082  32.633  0.00  0.00    -0.297 N 
ATOM     14  H   TYR A   9      13.866  -5.271  33.634  0.00  0.00    +0.150 HD
ATOM     15  O   GLY A   8      13.271  -4.430  30.648  0.00  0.00    -0.273 OA
BRANCH  13  16
ATOM     16  CA  TYR A   9      15.393  -5.391  32.103  0.00  0.00    +0.153 C 
BRANCH  16  17
ATOM     17  C   TYR A   9      15.352  -6.352  30.885  0.00  0.00    +0.241 C 
ATOM     18  N   ARG A  10      14.695  -7.499  31.034  0.00  0.00    -0.297 N 
ATOM     19  H   ARG A  10      14.254  -7.707  31.953  0.00  0.00    +0.150 HD
ATOM     20  O   TYR A   9      15.893  -6.041  29.827  0.00  0.00    -0.273 OA
BRANCH  18  21
ATOM     21  CA  ARG A  10      14.570  -8.473  29.962  0.00  0.00    +0.149 C 
BRANCH  21  22
ATOM     22  C   ARG A  10      13.598  -8.018  28.861  0.00  0.00    +0.241 C 
ATOM     23  N   GLY A  11      12.798  -6.985  29.142  0.00  0.00    -0.296 N 
ATOM     24  H   GLY A  11      12.931  -6.484  30.044  0.00  0.00    +0.150 HD
ATOM     25  O   ARG A  10      13.576  -8.608  27.788  0.00  0.00    -0.273 OA
BRANCH  23  26
ATOM     26  CA  GLY A  11      11.738  -6.526  28.232  0.00  0.00    +0.163 C 
BRANCH  26  27
ATOM     27  C   GLY A  11      12.130  -5.404  27.286  0.00  0.00    +0.229 C 
ATOM     28  O   GLY A  11      11.326  -4.971  26.458  0.00  0.00    -0.286 OA
ENDBRANCH  26  27
ENDBRANCH  23  26
ENDBRANCH  21  22
BRANCH  21  29
ATOM     29  CB  ARG A  10      14.077  -9.807  30.534  0.00  0.00    +0.033 C 
BRANCH  29  30
ATOM     30  CG  ARG A  10      12.571  -9.850  30.748  0.00  0.00    +0.045 C 
BRANCH  30  31
ATOM     31  CD  ARG A  10      12.074 -10.968  31.630  0.00  0.00    +0.174 C 
BRANCH  31  32
ATOM     32  NE  ARG A  10      12.692 -10.944  32.954  0.00  0.00    -0.265 N 
ATOM     33  CZ  ARG A  10      12.448 -11.841  33.898  0.00  0.00    +0.342 C 
ATOM     34  NH2 ARG A  10      13.067 -11.753  35.071  0.00  0.00    -0.292 N 
ATOM     35 HH21 ARG A  10      12.877 -12.456  35.813  0.00  0.00    +0.255 HD
ATOM     36 HH22 ARG A  10      13.741 -10.981  35.246  0.00  0.00    +0.255 HD
ATOM     37  NH1 ARG A  10      11.580 -12.830  33.665  0.00  0.00    -0.292 N 
ATOM     38 HH11 ARG A  10      11.386 -13.536  34.403  0.00  0.00    +0.255 HD
ATOM     39 HH12 ARG A  10      11.099 -12.894  32.745  0.00  0.00    +0.255 HD
ATOM     40  HE  ARG A  10      13.362 -10.178  33.168  0.00  0.00    +0.259 HD
ENDBRANCH  31  32
ENDBRANCH  30  31
ENDBRANCH  29  30
ENDBRANCH  21  29
ENDBRANCH  18  21
ENDBRANCH  16  17
BRANCH  16  41
ATOM     41  CB  TYR A   9      16.305  -5.908  33.226  0.00  0.00    +0.055 C 
BRANCH  41  42
ATOM     42  CG  TYR A   9      17.784  -5.681  33.020  0.00  0.00    -0.020 A 
ATOM     43  CD2 TYR A   9      18.658  -5.669  34.109  0.00  0.00    -0.001 A 
ATOM     44  CE2 TYR A   9      20.027  -5.479  33.931  0.00  0.00    +0.036 A 
ATOM     45  CZ  TYR A   9      20.540  -5.299  32.660  0.00  0.00    +0.134 A 
ATOM     46  CE1 TYR A   9      19.700  -5.304  31.554  0.00  0.00    +0.036 A 
ATOM     47  CD1 TYR A   9      18.328  -5.498  31.734  0.00  0.00    -0.001 A 
BRANCH  45  48
ATOM     48  OH  TYR A   9      21.907  -5.117  32.507  0.00  0.00    -0.506 OA
ATOM     49  HH  TYR A   9      22.118  -5.003  31.547  0.00  0.00    +0.292 HD
ENDBRANCH  45  48
ENDBRANCH  41  42
ENDBRANCH  16  41
ENDBRANCH  13  16
ENDBRANCH  11  12
ENDBRANCH   9  11
ENDBRANCH   6   7
BRANCH   6  50
ATOM     50  CB  PHE A   7       9.441  -5.775  36.165  0.00  0.00    +0.055 C 
BRANCH  50  51
ATOM     51  CG  PHE A   7       8.964  -6.092  37.567  0.00  0.00    -0.020 A 
ATOM     52  CD2 PHE A   7       9.558  -5.525  38.700  0.00  0.00    -0.004 A 
ATOM     53  CE2 PHE A   7       9.095  -5.827  39.986  0.00  0.00    -0.000 A 
ATOM     54  CZ  PHE A   7       8.019  -6.705  40.151  0.00  0.00    -0.000 A 
ATOM     55  CE1 PHE A   7       7.420  -7.284  39.026  0.00  0.00    -0.000 A 
ATOM     56  CD1 PHE A   7       7.899  -6.977  37.744  0.00  0.00    -0.004 A 
ENDBRANCH  50  51
ENDBRANCH   6  50
ENDBRANCH   4   6
ENDBRANCH   1   2
BRANCH   1  58
ATOM     57  C   HIS A   5       9.415  -1.573  39.201  0.00  0.00    +0.241 C 
ATOM     58  N   ASP A   6      10.642  -1.251  38.804  0.00  0.00    -0.297 N 
ATOM     59  H   ASP A   6      11.265  -0.767  39.482  0.00  0.00    +0.150 HD
ATOM     60  O   HIS A   5       8.585  -2.130  38.475  0.00  0.00    -0.273 OA
BRANCH  57  61
ATOM     61  CA  HIS A   5       9.092  -1.223  40.656  0.00  0.00    +0.155 C 
BRANCH  61  63
ATOM     62  C   LEU A   4       7.712   0.769  40.823  0.00  0.00    +0.241 C 
ATOM     63  N   HIS A   5       7.815  -0.553  40.796  0.00  0.00    -0.297 N 
ATOM     64  H   HIS A   5       6.952  -1.127  40.878  0.00  0.00    +0.150 HD
ATOM     65  O   LEU A   4       8.677   1.522  40.691  0.00  0.00    -0.273 OA
BRANCH  62  66
ATOM     66  CA  LEU A   4       6.300   1.327  41.005  0.00  0.00    +0.149 C 
BRANCH  66  69
ATOM     67  C   LYS A   3       5.116   1.423  43.169  0.00  0.00    +0.241 C 
ATOM     68  O   LYS A   3       4.195   0.703  42.787  0.00  0.00    -0.273 OA
ATOM     69  N   LEU A   4       6.111   1.829  42.377  0.00  0.00    -0.297 N 
ATOM     70  H   LEU A   4       6.783   2.532  42.745  0.00  0.00    +0.150 HD
BRANCH  67  71
ATOM     71  CA  LYS A   3       5.152   1.913  44.614  0.00  0.00    +0.149 C 
BRANCH  71  74
ATOM     72  C   TYR A   2       7.358   1.742  45.649  0.00  0.00    +0.241 C 
ATOM     73  O   TYR A   2       7.249   0.522  45.753  0.00  0.00    -0.273 OA
ATOM     74  N   LYS A   3       6.444   2.488  45.038  0.00  0.00    -0.297 N 
ATOM     75  H   LYS A   3       6.642   3.493  44.856  0.00  0.00    +0.150 HD
BRANCH  72  76
ATOM     76  CA  TYR A   2       8.591   2.468  46.228  0.00  0.00    +0.153 C 
BRANCH  76  78
ATOM     77  C   GLU A   1       9.092   4.823  45.712  0.00  0.00    +0.238 C 
ATOM     78  N   TYR A   2       8.388   3.913  46.392  0.00  0.00    -0.297 N 
ATOM     79  H   TYR A   2       7.667   4.242  47.065  0.00  0.00    +0.150 HD
ATOM     80  O   GLU A   1      10.060   4.537  45.013  0.00  0.00    -0.274 OA
BRANCH  77  81
ATOM     81  CA  GLU A   1       8.667   6.292  45.868  0.00  0.00    +0.145 C 
BRANCH  81  82
ATOM     82  N   GLU A   1       7.463   6.481  46.682  0.00  0.00    -0.238 NA
ATOM     83  H   GLU A   1       7.558   7.023  47.565  0.00  0.00    +0.142 HD
ENDBRANCH  81  82
BRANCH  81  84
ATOM     84  CB  GLU A   1       9.815   7.071  46.504  0.00  0.00    +0.038 C 
BRANCH  84  85
ATOM     85  CG  GLU A   1       9.996   6.725  47.971  0.00  0.00    +0.116 C 
BRANCH  85  86
ATOM     86  CD  GLU A   1      11.276   7.262  48.579  0.00  0.00    +0.365 C 
ATOM     87  OE2 GLU A   1      11.868   6.528  49.393  0.00  0.00    -0.246 OA
ATOM     88  OE1 GLU A   1      11.681   8.403  48.269  0.00  0.00    -0.246 OA
ENDBRANCH  85  86
ENDBRANCH  84  85
ENDBRANCH  81  84
ENDBRANCH  77  81
ENDBRANCH  76  78
BRANCH  76  89
ATOM     89  CB  TYR A   2       9.050   1.821  47.555  0.00  0.00    +0.055 C 
BRANCH  89  90
ATOM     90  CG  TYR A   2      10.477   2.173  47.911  0.00  0.00    -0.020 A 
ATOM     91  CD2 TYR A   2      10.759   3.121  48.891  0.00  0.00    -0.001 A 
ATOM     92  CE2 TYR A   2      12.079   3.463  49.199  0.00  0.00    +0.036 A 
ATOM     93  CZ  TYR A   2      13.121   2.863  48.515  0.00  0.00    +0.134 A 
ATOM     94  CE1 TYR A   2      12.868   1.923  47.537  0.00  0.00    +0.036 A 
ATOM     95  CD1 TYR A   2      11.553   1.586  47.234  0.00  0.00    -0.001 A 
BRANCH  93  96
ATOM     96  OH  TYR A   2      14.422   3.204  48.819  0.00  0.00    -0.506 OA
ATOM     97  HH  TYR A   2      14.424   3.886  49.536  0.00  0.00    +0.292 HD
ENDBRANCH  93  96
ENDBRANCH  89  90
ENDBRANCH  76  89
ENDBRANCH  72  76
ENDBRANCH  71  74
BRANCH  71  98
ATOM     98  CB  LYS A   3       3.992   2.889  44.867  0.00  0.00    +0.029 C 
BRANCH  98  99
ATOM     99  CG  LYS A   3       3.662   3.123  46.328  0.00  0.00    +0.000 C 
BRANCH  99 100
ATOM    100  CD  LYS A   3       2.666   2.136  46.865  0.00  0.00    -0.024 C 
BRANCH 100 101
ATOM    101  CE  LYS A   3       2.250   2.506  48.285  0.00  0.00    -0.086 C 
BRANCH 101 102
ATOM    102  NZ  LYS A   3       2.137   1.277  49.113  0.00  0.00    +0.380 N 
ATOM    103  HZ1 LYS A   3       1.853   1.536  50.079  0.00  0.00    -0.089 HD
ATOM    104  HZ2 LYS A   3       3.057   0.792  49.139  0.00  0.00    -0.089 HD
ATOM    105  HZ3 LYS A   3       1.422   0.646  48.698  0.00  0.00    -0.089 HD
ENDBRANCH 101 102
ENDBRANCH 100 101
ENDBRANCH  99 100
ENDBRANCH  98  99
ENDBRANCH  71  98
ENDBRANCH  67  71
ENDBRANCH  66  69
BRANCH  66 106
ATOM    106  CB  LEU A   4       6.053   2.424  39.953  0.00  0.00    +0.029 C 
BRANCH 106 107
ATOM    107  CG  LEU A   4       4.948   2.373  38.880  0.00  0.00    +0.002 C 
ATOM    108  CD2 LEU A   4       4.608   0.964  38.393  0.00  0.00    +0.000 C 
ATOM    109  CD1 LEU A   4       5.370   3.256  37.717  0.00  0.00    +0.000 C 
ENDBRANCH 106 107
ENDBRANCH  66 106
ENDBRANCH  62  66
ENDBRANCH  61  63
BRANCH  61 110
ATOM    110  CB  HIS A   5       9.131  -2.482  41.532  0.00  0.00    +0.076 C 
BRANCH 110 111
ATOM    111  CG  HIS A   5      10.511  -2.873  41.958  0.00  0.00    +0.082 A 
ATOM    112  ND1 HIS A   5      11.093  -2.399  43.113  0.00  0.00    -0.227 NA
ATOM    113  CE1 HIS A   5      12.309  -2.896  43.228  0.00  0.00    +0.199 A 
ATOM    114  NE2 HIS A   5      12.542  -3.674  42.185  0.00  0.00    -0.221 NA
ATOM    115  CD2 HIS A   5      11.434  -3.675  41.374  0.00  0.00    +0.115 A 
ENDBRANCH 110 111
ENDBRANCH  61 110
ENDBRANCH  57  61
ENDBRANCH   1  58
BRANCH   1 116
ATOM    116  CB  ASP A   6      12.400  -0.657  37.230  0.00  0.00    +0.143 C 
BRANCH 116 117
ATOM    117  CG  ASP A   6      12.963  -0.760  35.817  0.00  0.00    +0.367 C 
ATOM    118  OD2 ASP A   6      13.721   0.113  35.359  0.00  0.00    -0.246 OA
ATOM    119  OD1 ASP A   6      12.687  -1.731  35.085  0.00  0.00    -0.246 OA
ENDBRANCH 116 117
ENDBRANCH   1 116
TORSDOF 48
REMARK  Name = ../refined-set-2016/2gvj/2gvj_pocket.pdb
REMARK  262 active torsions:
REMARK  status: ('A' for Active; 'I' for Inactive)
REMARK    1  A    between atoms: _1  and  _3
REMARK    2  A    between atoms: _3  and  _4
REMARK    3  A    between atoms: _3  and  _6
REMARK    4  A    between atoms: _6  and  _7
REMARK    5  A    between atoms: _10  and  _12
REMARK    6  A    between atoms: _12  and  _13
REMARK    7  A    between atoms: _12  and  _15
REMARK    8  A    between atoms: _15  and  _16
REMARK    9  A    between atoms: _19  and  _21
REMARK   10  A    between atoms: _21  and  _22
REMARK   11  A    between atoms: _21  and  _24
REMARK   12  A    between atoms: _24  and  _25
REMARK   13  A    between atoms: _27  and  _29
REMARK   14  A    between atoms: _29  and  _30
REMARK   15  A    between atoms: _29  and  _32
REMARK   16  A    between atoms: _32  and  _33
REMARK   17  A    between atoms: _38  and  _39
REMARK   18  A    between atoms: _41  and  _43
REMARK   19  A    between atoms: _43  and  _44
REMARK   20  A    between atoms: _43  and  _46
REMARK   21  A    between atoms: _46  and  _47
REMARK   22  A    between atoms: _47  and  _48
REMARK   23  A    between atoms: _48  and  _49
REMARK   24  A    between atoms: _49  and  _50
REMARK   25  A    between atoms: _54  and  _56
REMARK   26  A    between atoms: _56  and  _57
REMARK   27  A    between atoms: _56  and  _59
REMARK   28  A    between atoms: _59  and  _60
REMARK   29  A    between atoms: _65  and  _67
REMARK   30  A    between atoms: _67  and  _68
REMARK   31  A    between atoms: _67  and  _70
REMARK   32  A    between atoms: _70  and  _71
REMARK   33  A    between atoms: _71  and  _72
REMARK   34  A    between atoms: _75  and  _77
REMARK   35  A    between atoms: _77  and  _78
REMARK   36  A    between atoms: _77  and  _80
REMARK   37  A    between atoms: _80  and  _81
REMARK   38  A    between atoms: _84  and  _86
REMARK   39  A    between atoms: _86  and  _87
REMARK   40  A    between atoms: _86  and  _89
REMARK   41  A    between atoms: _89  and  _90
REMARK   42  A    between atoms: _90  and  _91
REMARK   43  A    between atoms: _91  and  _92
REMARK   44  A    between atoms: _101  and  _103
REMARK   45  A    between atoms: _103  and  _104
REMARK   46  A    between atoms: _103  and  _106
REMARK   47  A    between atoms: _106  and  _107
REMARK   48  A    between atoms: _110  and  _112
REMARK   49  A    between atoms: _112  and  _113
REMARK   50  A    between atoms: _112  and  _115
REMARK   51  A    between atoms: _115  and  _116
REMARK   52  A    between atoms: _119  and  _121
REMARK   53  A    between atoms: _121  and  _122
REMARK   54  A    between atoms: _124  and  _126
REMARK   55  A    between atoms: _126  and  _127
REMARK   56  A    between atoms: _126  and  _129
REMARK   57  A    between atoms: _129  and  _130
REMARK   58  A    between atoms: _130  and  _131
REMARK   59  A    between atoms: _134  and  _136
REMARK   60  A    between atoms: _136  and  _137
REMARK   61  A    between atoms: _136  and  _139
REMARK   62  A    between atoms: _139  and  _140
REMARK   63  A    between atoms: _145  and  _146
REMARK   64  A    between atoms: _148  and  _150
REMARK   65  A    between atoms: _150  and  _151
REMARK   66  A    between atoms: _150  and  _153
REMARK   67  A    between atoms: _153  and  _154
REMARK   68  A    between atoms: _154  and  _155
REMARK   69  A    between atoms: _155  and  _156
REMARK   70  A    between atoms: _156  and  _157
REMARK   71  A    between atoms: _161  and  _163
REMARK   72  A    between atoms: _163  and  _164
REMARK   73  A    between atoms: _163  and  _166
REMARK   74  A    between atoms: _166  and  _167
REMARK   75  A    between atoms: _170  and  _172
REMARK   76  A    between atoms: _172  and  _173
REMARK   77  A    between atoms: _172  and  _175
REMARK   78  A    between atoms: _175  and  _176
REMARK   79  A    between atoms: _181  and  _183
REMARK   80  A    between atoms: _183  and  _184
REMARK   81  A    between atoms: _183  and  _186
REMARK   82  A    between atoms: _186  and  _187
REMARK   83  A    between atoms: _190  and  _192
REMARK   84  A    between atoms: _192  and  _193
REMARK   85  A    between atoms: _192  and  _195
REMARK   86  A    between atoms: _195  and  _196
REMARK   87  A    between atoms: _202  and  _204
REMARK   88  A    between atoms: _204  and  _205
REMARK   89  A    between atoms: _207  and  _209
REMARK   90  A    between atoms: _209  and  _210
REMARK   91  A    between atoms: _209  and  _212
REMARK   92  A    between atoms: _212  and  _213
REMARK   93  A    between atoms: _218  and  _219
REMARK   94  A    between atoms: _221  and  _223
REMARK   95  A    between atoms: _223  and  _224
REMARK   96  A    between atoms: _223  and  _226
REMARK   97  A    between atoms: _226  and  _227
REMARK   98  A    between atoms: _227  and  _228
REMARK   99  A    between atoms: _228  and  _229
REMARK  100  A    between atoms: _238  and  _240
REMARK  101  A    between atoms: _240  and  _241
REMARK  102  A    between atoms: _243  and  _245
REMARK  103  A    between atoms: _245  and  _246
REMARK  104  A    between atoms: _248  and  _250
REMARK  105  A    between atoms: _250  and  _251
REMARK  106  A    between atoms: _250  and  _253
REMARK  107  A    between atoms: _253  and  _254
REMARK  108  A    between atoms: _257  and  _259
REMARK  109  A    between atoms: _259  and  _260
REMARK  110  A    between atoms: _259  and  _262
REMARK  111  A    between atoms: _262  and  _263
REMARK  112  A    between atoms: _266  and  _268
REMARK  113  A    between atoms: _268  and  _269
REMARK  114  A    between atoms: _268  and  _271
REMARK  115  A    between atoms: _271  and  _272
REMARK  116  A    between atoms: _275  and  _277
REMARK  117  A    between atoms: _277  and  _278
REMARK  118  A    between atoms: _277  and  _280
REMARK  119  A    between atoms: _280  and  _281
REMARK  120  A    between atoms: _286  and  _287
REMARK  121  A    between atoms: _289  and  _291
REMARK  122  A    between atoms: _291  and  _292
REMARK  123  A    between atoms: _291  and  _294
REMARK  124  A    between atoms: _294  and  _295
REMARK  125  A    between atoms: _297  and  _299
REMARK  126  A    between atoms: _299  and  _300
REMARK  127  A    between atoms: _299  and  _302
REMARK  128  A    between atoms: _306  and  _307
REMARK  129  A    between atoms: _312  and  _314
REMARK  130  A    between atoms: _314  and  _315
REMARK  131  A    between atoms: _318  and  _320
REMARK  132  A    between atoms: _320  and  _321
REMARK  133  A    between atoms: _324  and  _326
REMARK  134  A    between atoms: _326  and  _327
REMARK  135  A    between atoms: _326  and  _329
REMARK  136  A    between atoms: _329  and  _330
REMARK  137  A    between atoms: _330  and  _331
REMARK  138  A    between atoms: _334  and  _336
REMARK  139  A    between atoms: _336  and  _337
REMARK  140  A    between atoms: _336  and  _339
REMARK  141  A    between atoms: _339  and  _340
REMARK  142  A    between atoms: _346  and  _347
REMARK  143  A    between atoms: _352  and  _354
REMARK  144  A    between atoms: _354  and  _355
REMARK  145  A    between atoms: _354  and  _357
REMARK  146  A    between atoms: _360  and  _362
REMARK  147  A    between atoms: _362  and  _363
REMARK  148  A    between atoms: _362  and  _365
REMARK  149  A    between atoms: _365  and  _366
REMARK  150  A    between atoms: _368  and  _370
REMARK  151  A    between atoms: _370  and  _371
REMARK  152  A    between atoms: _370  and  _373
REMARK  153  A    between atoms: _376  and  _378
REMARK  154  A    between atoms: _378  and  _379
REMARK  155  A    between atoms: _378  and  _381
REMARK  156  A    between atoms: _384  and  _386
REMARK  157  A    between atoms: _386  and  _387
REMARK  158  A    between atoms: _386  and  _389
REMARK  159  A    between atoms: _389  and  _390
REMARK  160  A    between atoms: _393  and  _395
REMARK  161  A    between atoms: _395  and  _396
REMARK  162  A    between atoms: _395  and  _398
REMARK  163  A    between atoms: _398  and  _399
REMARK  164  A    between atoms: _399  and  _400
REMARK  165  A    between atoms: _405  and  _407
REMARK  166  A    between atoms: _407  and  _408
REMARK  167  A    between atoms: _412  and  _413
REMARK  168  A    between atoms: _418  and  _420
REMARK  169  A    between atoms: _420  and  _421
REMARK  170  A    between atoms: _420  and  _423
REMARK  171  A    between atoms: _423  and  _424
REMARK  172  A    between atoms: _427  and  _429
REMARK  173  A    between atoms: _429  and  _430
REMARK  174  A    between atoms: _429  and  _432
REMARK  175  A    between atoms: _432  and  _433
REMARK  176  A    between atoms: _436  and  _438
REMARK  177  A    between atoms: _438  and  _439
REMARK  178  A    between atoms: _438  and  _441
REMARK  179  A    between atoms: _441  and  _442
REMARK  180  A    between atoms: _445  and  _447
REMARK  181  A    between atoms: _447  and  _448
REMARK  182  A    between atoms: _447  and  _450
REMARK  183  A    between atoms: _450  and  _451
REMARK  184  A    between atoms: _451  and  _452
REMARK  185  A    between atoms: _452  and  _453
REMARK  186  A    between atoms: _463  and  _464
REMARK  187  A    between atoms: _469  and  _471
REMARK  188  A    between atoms: _471  and  _472
REMARK  189  A    between atoms: _471  and  _474
REMARK  190  A    between atoms: _474  and  _475
REMARK  191  A    between atoms: _478  and  _480
REMARK  192  A    between atoms: _480  and  _481
REMARK  193  A    between atoms: _480  and  _483
REMARK  194  A    between atoms: _483  and  _484
REMARK  195  A    between atoms: _487  and  _489
REMARK  196  A    between atoms: _489  and  _490
REMARK  197  A    between atoms: _489  and  _492
REMARK  198  A    between atoms: _492  and  _493
REMARK  199  A    between atoms: _497  and  _498
REMARK  200  A    between atoms: _503  and  _505
REMARK  201  A    between atoms: _505  and  _506
REMARK  202  A    between atoms: _505  and  _508
REMARK  203  A    between atoms: _508  and  _509
REMARK  204  A    between atoms: _512  and  _514
REMARK  205  A    between atoms: _514  and  _515
REMARK  206  A    between atoms: _514  and  _517
REMARK  207  A    between atoms: _517  and  _518
REMARK  208  A    between atoms: _518  and  _519
REMARK  209  A    between atoms: _519  and  _520
REMARK  210  A    between atoms: _529  and  _531
REMARK  211  A    between atoms: _531  and  _532
REMARK  212  A    between atoms: _531  and  _534
REMARK  213  A    between atoms: _537  and  _539
REMARK  214  A    between atoms: _539  and  _540
REMARK  215  A    between atoms: _539  and  _542
REMARK  216  A    between atoms: _542  and  _543
REMARK  217  A    between atoms: _546  and  _548
REMARK  218  A    between atoms: _548  and  _549
REMARK  219  A    between atoms: _548  and  _551
REMARK  220  A    between atoms: _551  and  _552
REMARK  221  A    between atoms: _552  and  _553
REMARK  222  A    between atoms: _558  and  _560
REMARK  223  A    between atoms: _560  and  _561
REMARK  224  A    between atoms: _563  and  _565
REMARK  225  A    between atoms: _565  and  _566
REMARK  226  A    between atoms: _565  and  _568
REMARK  227  A    between atoms: _568  and  _569
REMARK  228  A    between atoms: _572  and  _574
REMARK  229  A    between atoms: _574  and  _575
REMARK  230  A    between atoms: _574  and  _577
REMARK  231  A    between atoms: _577  and  _578
REMARK  232  A    between atoms: _580  and  _582
REMARK  233  A    between atoms: _582  and  _583
REMARK  234  A    between atoms: _582  and  _585
REMARK  235  A    between atoms: _585  and  _586
REMARK  236  A    between atoms: _589  and  _591
REMARK  237  A    between atoms: _591  and  _592
REMARK  238  A    between atoms: _591  and  _594
REMARK  239  A    between atoms: _594  and  _595
REMARK  240  A    between atoms: _595  and  _596
REMARK  241  A    between atoms: _599  and  _601
REMARK  242  A    between atoms: _601  and  _602
REMARK  243  A    between atoms: _601  and  _604
REMARK  244  A    between atoms: _604  and  _605
REMARK  245  A    between atoms: _610  and  _612
REMARK  246  A    between atoms: _612  and  _613
REMARK  247  A    between atoms: _612  and  _615
REMARK  248  A    between atoms: _615  and  _616
REMARK  249  A    between atoms: _619  and  _621
REMARK  250  A    between atoms: _621  and  _622
REMARK  251  A    between atoms: _625  and  _627
REMARK  252  A    between atoms: _627  and  _628
REMARK  253  A    between atoms: _627  and  _630
REMARK  254  A    between atoms: _630  and  _631
REMARK  255  A    between atoms: _637  and  _639
REMARK  256  A    between atoms: _639  and  _640
REMARK  257  A    between atoms: _642  and  _644
REMARK  258  A    between atoms: _644  and  _645
REMARK  259  A    between atoms: _644  and  _647
REMARK  260  A    between atoms: _647  and  _648
REMARK  261  A    between atoms: _650  and  _652
REMARK  262  A    between atoms: _652  and  _653
REMARK                            x       y       z     vdW  Elec       q    Type
REMARK                         _______ _______ _______ _____ _____    ______ ____
ROOT
ATOM      1  C   THR A   2      15.081  -2.496  40.683  0.00  0.00    +0.243 C 
ATOM      2  O   THR A   2      15.717  -2.814  41.692  0.00  0.00    -0.273 OA
ATOM      3  N   ASP A   3      14.848  -3.326  39.669  0.00  0.00    -0.296 N 
ATOM      4  H   ASP A   3      14.119  -3.062  38.976  0.00  0.00    +0.150 HD
ENDROOT
BRANCH   1   5
ATOM      5  CA  THR A   2      14.449  -1.103  40.553  0.00  0.00    +0.176 C 
BRANCH   5   7
ATOM      6  C   GLY A   1      13.008   0.268  41.973  0.00  0.00    +0.240 C 
ATOM      7  N   THR A   2      14.049  -0.550  41.846  0.00  0.00    -0.295 N 
ATOM      8  H   THR A   2      14.596  -0.804  42.693  0.00  0.00    +0.150 HD
ATOM      9  O   GLY A   1      12.304   0.630  41.027  0.00  0.00    -0.274 OA
BRANCH   6  10
ATOM     10  CA  GLY A   1      12.735   0.770  43.371  0.00  0.00    +0.169 C 
BRANCH  10  11
ATOM     11  N   GLY A   1      12.771   2.233  43.468  0.00  0.00    -0.236 NA
ATOM     12  H   GLY A   1      11.937   2.781  43.174  0.00  0.00    +0.142 HD
ENDBRANCH  10  11
ENDBRANCH   6  10
ENDBRANCH   5   7
BRANCH   5  13
ATOM     13  CB  THR A   2      15.361  -0.095  39.768  0.00  0.00    +0.137 C 
ATOM     14  CG2 THR A   2      16.783   0.049  40.390  0.00  0.00    +0.034 C 
BRANCH  13  15
ATOM     15  OG1 THR A   2      15.598  -0.575  38.438  0.00  0.00    -0.382 OA
ATOM     16  HG1 THR A   2      16.174   0.069  37.954  0.00  0.00    +0.210 HD
ENDBRANCH  13  15
ENDBRANCH   5  13
ENDBRANCH   1   5
BRANCH   3  17
ATOM     17  CA  ASP A   3      15.559  -4.588  39.474  0.00  0.00    +0.160 C 
BRANCH  17  18
ATOM     18  C   ASP A   3      16.432  -4.471  38.226  0.00  0.00    +0.241 C 
ATOM     19  O   ASP A   3      17.215  -5.377  37.895  0.00  0.00    -0.273 OA
ATOM     20  N   THR A   4      16.298  -3.347  37.528  0.00  0.00    -0.296 N 
ATOM     21  H   THR A   4      15.615  -2.625  37.836  0.00  0.00    +0.150 HD
BRANCH  20  22
ATOM     22  CA  THR A   4      17.102  -3.120  36.333  0.00  0.00    +0.164 C 
BRANCH  22  23
ATOM     23  C   THR A   4      18.462  -2.554  36.750  0.00  0.00    +0.229 C 
ATOM     24  O   THR A   4      18.633  -1.341  36.918  0.00  0.00    -0.286 OA
ENDBRANCH  22  23
BRANCH  22  25
ATOM     25  CB  THR A   4      16.352  -2.262  35.297  0.00  0.00    +0.136 C 
ATOM     26  CG2 THR A   4      17.093  -2.260  33.958  0.00  0.00    +0.034 C 
BRANCH  25  27
ATOM     27  OG1 THR A   4      15.113  -2.908  34.964  0.00  0.00    -0.382 OA
ATOM     28  HG1 THR A   4      14.626  -2.361  34.298  0.00  0.00    +0.210 HD
ENDBRANCH  25  27
ENDBRANCH  22  25
ENDBRANCH  20  22
ENDBRANCH  17  18
BRANCH  17  29
ATOM     29  CB  ASP A   3      14.573  -5.755  39.328  0.00  0.00    +0.143 C 
BRANCH  29  30
ATOM     30  CG  ASP A   3      14.398  -6.540  40.611  0.00  0.00    +0.367 C 
ATOM     31  OD2 ASP A   3      14.150  -5.919  41.671  0.00  0.00    -0.246 OA
ATOM     32  OD1 ASP A   3      14.505  -7.788  40.652  0.00  0.00    -0.246 OA
ENDBRANCH  29  30
ENDBRANCH  17  29
ENDBRANCH   3  17
TORSDOF 14
REMARK  Name = ../refined-set-2016/2gvj/2gvj_pocket.pdb
REMARK  262 active torsions:
REMARK  status: ('A' for Active; 'I' for Inactive)
REMARK    1  A    between atoms: _1  and  _3
REMARK    2  A    between atoms: _3  and  _4
REMARK    3  A    between atoms: _3  and  _6
REMARK    4  A    between atoms: _6  and  _7
REMARK    5  A    between atoms: _10  and  _12
REMARK    6  A    between atoms: _12  and  _13
REMARK    7  A    between atoms: _12  and  _15
REMARK    8  A    between atoms: _15  and  _16
REMARK    9  A    between atoms: _19  and  _21
REMARK   10  A    between atoms: _21  and  _22
REMARK   11  A    between atoms: _21  and  _24
REMARK   12  A    between atoms: _24  and  _25
REMARK   13  A    between atoms: _27  and  _29
REMARK   14  A    between atoms: _29  and  _30
REMARK   15  A    between atoms: _29  and  _32
REMARK   16  A    between atoms: _32  and  _33
REMARK   17  A    between atoms: _38  and  _39
REMARK   18  A    between atoms: _41  and  _43
REMARK   19  A    between atoms: _43  and  _44
REMARK   20  A    between atoms: _43  and  _46
REMARK   21  A    between atoms: _46  and  _47
REMARK   22  A    between atoms: _47  and  _48
REMARK   23  A    between atoms: _48  and  _49
REMARK   24  A    between atoms: _49  and  _50
REMARK   25  A    between atoms: _54  and  _56
REMARK   26  A    between atoms: _56  and  _57
REMARK   27  A    between atoms: _56  and  _59
REMARK   28  A    between atoms: _59  and  _60
REMARK   29  A    between atoms: _65  and  _67
REMARK   30  A    between atoms: _67  and  _68
REMARK   31  A    between atoms: _67  and  _70
REMARK   32  A    between atoms: _70  and  _71
REMARK   33  A    between atoms: _71  and  _72
REMARK   34  A    between atoms: _75  and  _77
REMARK   35  A    between atoms: _77  and  _78
REMARK   36  A    between atoms: _77  and  _80
REMARK   37  A    between atoms: _80  and  _81
REMARK   38  A    between atoms: _84  and  _86
REMARK   39  A    between atoms: _86  and  _87
REMARK   40  A    between atoms: _86  and  _89
REMARK   41  A    between atoms: _89  and  _90
REMARK   42  A    between atoms: _90  and  _91
REMARK   43  A    between atoms: _91  and  _92
REMARK   44  A    between atoms: _101  and  _103
REMARK   45  A    between atoms: _103  and  _104
REMARK   46  A    between atoms: _103  and  _106
REMARK   47  A    between atoms: _106  and  _107
REMARK   48  A    between atoms: _110  and  _112
REMARK   49  A    between atoms: _112  and  _113
REMARK   50  A    between atoms: _112  and  _115
REMARK   51  A    between atoms: _115  and  _116
REMARK   52  A    between atoms: _119  and  _121
REMARK   53  A    between atoms: _121  and  _122
REMARK   54  A    between atoms: _124  and  _126
REMARK   55  A    between atoms: _126  and  _127
REMARK   56  A    between atoms: _126  and  _129
REMARK   57  A    between atoms: _129  and  _130
REMARK   58  A    between atoms: _130  and  _131
REMARK   59  A    between atoms: _134  and  _136
REMARK   60  A    between atoms: _136  and  _137
REMARK   61  A    between atoms: _136  and  _139
REMARK   62  A    between atoms: _139  and  _140
REMARK   63  A    between atoms: _145  and  _146
REMARK   64  A    between atoms: _148  and  _150
REMARK   65  A    between atoms: _150  and  _151
REMARK   66  A    between atoms: _150  and  _153
REMARK   67  A    between atoms: _153  and  _154
REMARK   68  A    between atoms: _154  and  _155
REMARK   69  A    between atoms: _155  and  _156
REMARK   70  A    between atoms: _156  and  _157
REMARK   71  A    between atoms: _161  and  _163
REMARK   72  A    between atoms: _163  and  _164
REMARK   73  A    between atoms: _163  and  _166
REMARK   74  A    between atoms: _166  and  _167
REMARK   75  A    between atoms: _170  and  _172
REMARK   76  A    between atoms: _172  and  _173
REMARK   77  A    between atoms: _172  and  _175
REMARK   78  A    between atoms: _175  and  _176
REMARK   79  A    between atoms: _181  and  _183
REMARK   80  A    between atoms: _183  and  _184
REMARK   81  A    between atoms: _183  and  _186
REMARK   82  A    between atoms: _186  and  _187
REMARK   83  A    between atoms: _190  and  _192
REMARK   84  A    between atoms: _192  and  _193
REMARK   85  A    between atoms: _192  and  _195
REMARK   86  A    between atoms: _195  and  _196
REMARK   87  A    between atoms: _202  and  _204
REMARK   88  A    between atoms: _204  and  _205
REMARK   89  A    between atoms: _207  and  _209
REMARK   90  A    between atoms: _209  and  _210
REMARK   91  A    between atoms: _209  and  _212
REMARK   92  A    between atoms: _212  and  _213
REMARK   93  A    between atoms: _218  and  _219
REMARK   94  A    between atoms: _221  and  _223
REMARK   95  A    between atoms: _223  and  _224
REMARK   96  A    between atoms: _223  and  _226
REMARK   97  A    between atoms: _226  and  _227
REMARK   98  A    between atoms: _227  and  _228
REMARK   99  A    between atoms: _228  and  _229
REMARK  100  A    between atoms: _238  and  _240
REMARK  101  A    between atoms: _240  and  _241
REMARK  102  A    between atoms: _243  and  _245
REMARK  103  A    between atoms: _245  and  _246
REMARK  104  A    between atoms: _248  and  _250
REMARK  105  A    between atoms: _250  and  _251
REMARK  106  A    between atoms: _250  and  _253
REMARK  107  A    between atoms: _253  and  _254
REMARK  108  A    between atoms: _257  and  _259
REMARK  109  A    between atoms: _259  and  _260
REMARK  110  A    between atoms: _259  and  _262
REMARK  111  A    between atoms: _262  and  _263
REMARK  112  A    between atoms: _266  and  _268
REMARK  113  A    between atoms: _268  and  _269
REMARK  114  A    between atoms: _268  and  _271
REMARK  115  A    between atoms: _271  and  _272
REMARK  116  A    between atoms: _275  and  _277
REMARK  117  A    between atoms: _277  and  _278
REMARK  118  A    between atoms: _277  and  _280
REMARK  119  A    between atoms: _280  and  _281
REMARK  120  A    between atoms: _286  and  _287
REMARK  121  A    between atoms: _289  and  _291
REMARK  122  A    between atoms: _291  and  _292
REMARK  123  A    between atoms: _291  and  _294
REMARK  124  A    between atoms: _294  and  _295
REMARK  125  A    between atoms: _297  and  _299
REMARK  126  A    between atoms: _299  and  _300
REMARK  127  A    between atoms: _299  and  _302
REMARK  128  A    between atoms: _306  and  _307
REMARK  129  A    between atoms: _312  and  _314
REMARK  130  A    between atoms: _314  and  _315
REMARK  131  A    between atoms: _318  and  _320
REMARK  132  A    between atoms: _320  and  _321
REMARK  133  A    between atoms: _324  and  _326
REMARK  134  A    between atoms: _326  and  _327
REMARK  135  A    between atoms: _326  and  _329
REMARK  136  A    between atoms: _329  and  _330
REMARK  137  A    between atoms: _330  and  _331
REMARK  138  A    between atoms: _334  and  _336
REMARK  139  A    between atoms: _336  and  _337
REMARK  140  A    between atoms: _336  and  _339
REMARK  141  A    between atoms: _339  and  _340
REMARK  142  A    between atoms: _346  and  _347
REMARK  143  A    between atoms: _352  and  _354
REMARK  144  A    between atoms: _354  and  _355
REMARK  145  A    between atoms: _354  and  _357
REMARK  146  A    between atoms: _360  and  _362
REMARK  147  A    between atoms: _362  and  _363
REMARK  148  A    between atoms: _362  and  _365
REMARK  149  A    between atoms: _365  and  _366
REMARK  150  A    between atoms: _368  and  _370
REMARK  151  A    between atoms: _370  and  _371
REMARK  152  A    between atoms: _370  and  _373
REMARK  153  A    between atoms: _376  and  _378
REMARK  154  A    between atoms: _378  and  _379
REMARK  155  A    between atoms: _378  and  _381
REMARK  156  A    between atoms: _384  and  _386
REMARK  157  A    between atoms: _386  and  _387
REMARK  158  A    between atoms: _386  and  _389
REMARK  159  A    between atoms: _389  and  _390
REMARK  160  A    between atoms: _393  and  _395
REMARK  161  A    between atoms: _395  and  _396
REMARK  162  A    between atoms: _395  and  _398
REMARK  163  A    between atoms: _398  and  _399
REMARK  164  A    between atoms: _399  and  _400
REMARK  165  A    between atoms: _405  and  _407
REMARK  166  A    between atoms: _407  and  _408
REMARK  167  A    between atoms: _412  and  _413
REMARK  168  A    between atoms: _418  and  _420
REMARK  169  A    between atoms: _420  and  _421
REMARK  170  A    between atoms: _420  and  _423
REMARK  171  A    between atoms: _423  and  _424
REMARK  172  A    between atoms: _427  and  _429
REMARK  173  A    between atoms: _429  and  _430
REMARK  174  A    between atoms: _429  and  _432
REMARK  175  A    between atoms: _432  and  _433
REMARK  176  A    between atoms: _436  and  _438
REMARK  177  A    between atoms: _438  and  _439
REMARK  178  A    between atoms: _438  and  _441
REMARK  179  A    between atoms: _441  and  _442
REMARK  180  A    between atoms: _445  and  _447
REMARK  181  A    between atoms: _447  and  _448
REMARK  182  A    between atoms: _447  and  _450
REMARK  183  A    between atoms: _450  and  _451
REMARK  184  A    between atoms: _451  and  _452
REMARK  185  A    between atoms: _452  and  _453
REMARK  186  A    between atoms: _463  and  _464
REMARK  187  A    between atoms: _469  and  _471
REMARK  188  A    between atoms: _471  and  _472
REMARK  189  A    between atoms: _471  and  _474
REMARK  190  A    between atoms: _474  and  _475
REMARK  191  A    between atoms: _478  and  _480
REMARK  192  A    between atoms: _480  and  _481
REMARK  193  A    between atoms: _480  and  _483
REMARK  194  A    between atoms: _483  and  _484
REMARK  195  A    between atoms: _487  and  _489
REMARK  196  A    between atoms: _489  and  _490
REMARK  197  A    between atoms: _489  and  _492
REMARK  198  A    between atoms: _492  and  _493
REMARK  199  A    between atoms: _497  and  _498
REMARK  200  A    between atoms: _503  and  _505
REMARK  201  A    between atoms: _505  and  _506
REMARK  202  A    between atoms: _505  and  _508
REMARK  203  A    between atoms: _508  and  _509
REMARK  204  A    between atoms: _512  and  _514
REMARK  205  A    between atoms: _514  and  _515
REMARK  206  A    between atoms: _514  and  _517
REMARK  207  A    between atoms: _517  and  _518
REMARK  208  A    between atoms: _518  and  _519
REMARK  209  A    between atoms: _519  and  _520
REMARK  210  A    between atoms: _529  and  _531
REMARK  211  A    between atoms: _531  and  _532
REMARK  212  A    between atoms: _531  and  _534
REMARK  213  A    between atoms: _537  and  _539
REMARK  214  A    between atoms: _539  and  _540
REMARK  215  A    between atoms: _539  and  _542
REMARK  216  A    between atoms: _542  and  _543
REMARK  217  A    between atoms: _546  and  _548
REMARK  218  A    between atoms: _548  and  _549
REMARK  219  A    between atoms: _548  and  _551
REMARK  220  A    between atoms: _551  and  _552
REMARK  221  A    between atoms: _552  and  _553
REMARK  222  A    between atoms: _558  and  _560
REMARK  223  A    between atoms: _560  and  _561
REMARK  224  A    between atoms: _563  and  _565
REMARK  225  A    between atoms: _565  and  _566
REMARK  226  A    between atoms: _565  and  _568
REMARK  227  A    between atoms: _568  and  _569
REMARK  228  A    between atoms: _572  and  _574
REMARK  229  A    between atoms: _574  and  _575
REMARK  230  A    between atoms: _574  and  _577
REMARK  231  A    between atoms: _577  and  _578
REMARK  232  A    between atoms: _580  and  _582
REMARK  233  A    between atoms: _582  and  _583
REMARK  234  A    between atoms: _582  and  _585
REMARK  235  A    between atoms: _585  and  _586
REMARK  236  A    between atoms: _589  and  _591
REMARK  237  A    between atoms: _591  and  _592
REMARK  238  A    between atoms: _591  and  _594
REMARK  239  A    between atoms: _594  and  _595
REMARK  240  A    between atoms: _595  and  _596
REMARK  241  A    between atoms: _599  and  _601
REMARK  242  A    between atoms: _601  and  _602
REMARK  243  A    between atoms: _601  and  _604
REMARK  244  A    between atoms: _604  and  _605
REMARK  245  A    between atoms: _610  and  _612
REMARK  246  A    between atoms: _612  and  _613
REMARK  247  A    between atoms: _612  and  _615
REMARK  248  A    between atoms: _615  and  _616
REMARK  249  A    between atoms: _619  and  _621
REMARK  250  A    between atoms: _621  and  _622
REMARK  251  A    between atoms: _625  and  _627
REMARK  252  A    between atoms: _627  and  _628
REMARK  253  A    between atoms: _627  and  _630
REMARK  254  A    between atoms: _630  and  _631
REMARK  255  A    between atoms: _637  and  _639
REMARK  256  A    between atoms: _639  and  _640
REMARK  257  A    between atoms: _642  and  _644
REMARK  258  A    between atoms: _644  and  _645
REMARK  259  A    between atoms: _644  and  _647
REMARK  260  A    between atoms: _647  and  _648
REMARK  261  A    between atoms: _650  and  _652
REMARK  262  A    between atoms: _652  and  _653
REMARK                            x       y       z     vdW  Elec       q    Type
REMARK                         _______ _______ _______ _____ _____    ______ ____
ROOT
ATOM      1  C   VAL A   3      14.917  -8.239  47.381  0.00  0.00    +0.244 C 
ATOM      2  N   PRO A   4      15.259  -9.264  48.166  0.00  0.00    -0.272 N 
ATOM      3  CD  PRO A   4      15.921  -9.175  49.488  0.00  0.00    +0.094 C 
ATOM      4  CG  PRO A   4      16.410 -10.583  49.721  0.00  0.00    +0.024 C 
ATOM      5  CB  PRO A   4      15.363 -11.440  49.021  0.00  0.00    +0.031 C 
ATOM      6  CA  PRO A   4      15.082 -10.662  47.740  0.00  0.00    +0.152 C 
ATOM      7  O   VAL A   3      14.655  -8.380  46.179  0.00  0.00    -0.273 OA
ENDROOT
BRANCH   6   8
ATOM      8  C   PRO A   4      13.673 -10.978  47.216  0.00  0.00    +0.241 C 
ATOM      9  O   PRO A   4      12.684 -10.534  47.783  0.00  0.00    -0.273 OA
ATOM     10  N   ALA A   5      13.597 -11.738  46.128  0.00  0.00    -0.297 N 
ATOM     11  H   ALA A   5      14.476 -12.074  45.684  0.00  0.00    +0.150 HD
BRANCH  10  12
ATOM     12  CA  ALA A   5      12.316 -12.115  45.538  0.00  0.00    +0.149 C 
ATOM     13  CB  ALA A   5      11.772 -10.995  44.647  0.00  0.00    +0.031 C 
BRANCH  12  14
ATOM     14  C   ALA A   5      12.462 -13.407  44.754  0.00  0.00    +0.241 C 
ATOM     15  N   ALA A   6      11.379 -14.177  44.698  0.00  0.00    -0.297 N 
ATOM     16  H   ALA A   6      10.523 -13.875  45.206  0.00  0.00    +0.150 HD
ATOM     17  O   ALA A   5      13.547 -13.712  44.243  0.00  0.00    -0.273 OA
BRANCH  15  18
ATOM     18  CA  ALA A   6      11.348 -15.427  43.952  0.00  0.00    +0.149 C 
ATOM     19  CB  ALA A   6      10.366 -16.403  44.582  0.00  0.00    +0.031 C 
BRANCH  18  20
ATOM     20  C   ALA A   6      10.980 -15.181  42.499  0.00  0.00    +0.241 C 
ATOM     21  O   ALA A   6      10.356 -14.172  42.167  0.00  0.00    -0.273 OA
ATOM     22  N   GLU A   7      11.387 -16.112  41.644  0.00  0.00    -0.297 N 
ATOM     23  H   GLU A   7      12.112 -16.790  41.955  0.00  0.00    +0.150 HD
BRANCH  22  24
ATOM     24  CA  GLU A   7      10.864 -16.225  40.292  0.00  0.00    +0.149 C 
BRANCH  24  25
ATOM     25  C   GLU A   7      10.216 -17.598  40.181  0.00  0.00    +0.241 C 
ATOM     26  O   GLU A   7      10.339 -18.411  41.091  0.00  0.00    -0.273 OA
ATOM     27  N   HIS A   8       9.524 -17.858  39.079  0.00  0.00    -0.298 N 
ATOM     28  H   HIS A   8       9.443 -17.134  38.337  0.00  0.00    +0.150 HD
BRANCH  27  29
ATOM     29  CA  HIS A   8       8.875 -19.157  38.902  0.00  0.00    +0.143 C 
BRANCH  29  30
ATOM     30  C   HIS A   8       9.839 -20.338  38.977  0.00  0.00    +0.227 C 
ATOM     31  O   HIS A   8       9.538 -21.329  39.639  0.00  0.00    -0.286 OA
ENDBRANCH  29  30
BRANCH  29  32
ATOM     32  CB  HIS A   8       8.026 -19.195  37.635  0.00  0.00    +0.075 C 
BRANCH  32  33
ATOM     33  CG  HIS A   8       6.792 -18.355  37.724  0.00  0.00    +0.082 A 
ATOM     34  CD2 HIS A   8       5.615 -18.563  38.365  0.00  0.00    +0.115 A 
ATOM     35  NE2 HIS A   8       4.818 -17.471  38.116  0.00  0.00    -0.221 NA
ATOM     36  CE1 HIS A   8       5.493 -16.611  37.373  0.00  0.00    +0.199 A 
ATOM     37  ND1 HIS A   8       6.687 -17.124  37.117  0.00  0.00    -0.227 NA
ENDBRANCH  32  33
ENDBRANCH  29  32
ENDBRANCH  27  29
ENDBRANCH  24  25
BRANCH  24  38
ATOM     38  CB  GLU A   7      11.972 -16.047  39.249  0.00  0.00    +0.041 C 
BRANCH  38  39
ATOM     39  CG  GLU A   7      12.958 -17.195  39.136  0.00  0.00    +0.116 C 
BRANCH  39  40
ATOM     40  CD  GLU A   7      14.048 -16.916  38.114  0.00  0.00    +0.365 C 
ATOM     41  OE2 GLU A   7      14.263 -15.738  37.758  0.00  0.00    -0.246 OA
ATOM     42  OE1 GLU A   7      14.683 -17.873  37.648  0.00  0.00    -0.246 OA
ENDBRANCH  39  40
ENDBRANCH  38  39
ENDBRANCH  24  38
ENDBRANCH  22  24
ENDBRANCH  18  20
ENDBRANCH  15  18
ENDBRANCH  12  14
ENDBRANCH  10  12
ENDBRANCH   6   8
BRANCH   1  43
ATOM     43  CA  VAL A   3      14.893  -6.841  48.010  0.00  0.00    +0.149 C 
BRANCH  43  46
ATOM     44  C   SER A   2      15.822  -4.823  46.954  0.00  0.00    +0.243 C 
ATOM     45  O   SER A   2      16.602  -4.585  47.886  0.00  0.00    -0.273 OA
ATOM     46  N   VAL A   3      14.972  -5.847  46.946  0.00  0.00    -0.297 N 
ATOM     47  H   VAL A   3      14.328  -5.944  46.135  0.00  0.00    +0.150 HD
BRANCH  44  48
ATOM     48  CA  SER A   2      15.779  -3.931  45.707  0.00  0.00    +0.178 C 
BRANCH  48  50
ATOM     49  C   TYR A   1      16.207  -1.556  45.339  0.00  0.00    +0.239 C 
ATOM     50  N   SER A   2      16.569  -2.721  45.867  0.00  0.00    -0.295 N 
ATOM     51  H   SER A   2      17.451  -2.769  46.416  0.00  0.00    +0.150 HD
ATOM     52  O   TYR A   1      15.221  -1.414  44.623  0.00  0.00    -0.274 OA
BRANCH  49  53
ATOM     53  CA  TYR A   1      17.101  -0.372  45.697  0.00  0.00    +0.149 C 
BRANCH  53  54
ATOM     54  N   TYR A   1      17.058   0.711  44.719  0.00  0.00    -0.238 NA
ATOM     55  H   TYR A   1      16.138   1.005  44.334  0.00  0.00    +0.142 HD
ENDBRANCH  53  54
BRANCH  53  56
ATOM     56  CB  TYR A   1      16.756   0.141  47.109  0.00  0.00    +0.053 C 
BRANCH  56  57
ATOM     57  CG  TYR A   1      17.632   1.283  47.581  0.00  0.00    -0.020 A 
ATOM     58  CD2 TYR A   1      18.789   1.047  48.325  0.00  0.00    -0.001 A 
ATOM     59  CE2 TYR A   1      19.598   2.103  48.747  0.00  0.00    +0.036 A 
ATOM     60  CZ  TYR A   1      19.252   3.405  48.408  0.00  0.00    +0.134 A 
ATOM     61  CE1 TYR A   1      18.121   3.659  47.670  0.00  0.00    +0.036 A 
ATOM     62  CD1 TYR A   1      17.315   2.601  47.259  0.00  0.00    -0.001 A 
BRANCH  60  63
ATOM     63  OH  TYR A   1      20.028   4.465  48.809  0.00  0.00    -0.506 OA
ATOM     64  HH  TYR A   1      20.941   4.363  48.440  0.00  0.00    +0.292 HD
ENDBRANCH  60  63
ENDBRANCH  56  57
ENDBRANCH  53  56
ENDBRANCH  49  53
ENDBRANCH  48  50
BRANCH  48  65
ATOM     65  CB  SER A   2      16.249  -4.712  44.481  0.00  0.00    +0.166 C 
BRANCH  65  66
ATOM     66  OG  SER A   2      15.432  -5.844  44.275  0.00  0.00    -0.380 OA
ATOM     67  H   SER A   2      14.496  -5.553  44.133  0.00  0.00    +0.211 HD
ENDBRANCH  65  66
ENDBRANCH  48  65
ENDBRANCH  44  48
ENDBRANCH  43  46
BRANCH  43  68
ATOM     68  CB  VAL A   3      13.603  -6.668  48.883  0.00  0.00    +0.027 C 
ATOM     69  CG2 VAL A   3      13.555  -5.280  49.526  0.00  0.00    +0.002 C 
ATOM     70  CG1 VAL A   3      12.346  -6.921  48.070  0.00  0.00    +0.002 C 
ENDBRANCH  43  68
ENDBRANCH   1  43
TORSDOF 26
REMARK  Name = ../refined-set-2016/2gvj/2gvj_pocket.pdb
REMARK  262 active torsions:
REMARK  status: ('A' for Active; 'I' for Inactive)
REMARK    1  A    between atoms: _1  and  _3
REMARK    2  A    between atoms: _3  and  _4
REMARK    3  A    between atoms: _3  and  _6
REMARK    4  A    between atoms: _6  and  _7
REMARK    5  A    between atoms: _10  and  _12
REMARK    6  A    between atoms: _12  and  _13
REMARK    7  A    between atoms: _12  and  _15
REMARK    8  A    between atoms: _15  and  _16
REMARK    9  A    between atoms: _19  and  _21
REMARK   10  A    between atoms: _21  and  _22
REMARK   11  A    between atoms: _21  and  _24
REMARK   12  A    between atoms: _24  and  _25
REMARK   13  A    between atoms: _27  and  _29
REMARK   14  A    between atoms: _29  and  _30
REMARK   15  A    between atoms: _29  and  _32
REMARK   16  A    between atoms: _32  and  _33
REMARK   17  A    between atoms: _38  and  _39
REMARK   18  A    between atoms: _41  and  _43
REMARK   19  A    between atoms: _43  and  _44
REMARK   20  A    between atoms: _43  and  _46
REMARK   21  A    between atoms: _46  and  _47
REMARK   22  A    between atoms: _47  and  _48
REMARK   23  A    between atoms: _48  and  _49
REMARK   24  A    between atoms: _49  and  _50
REMARK   25  A    between atoms: _54  and  _56
REMARK   26  A    between atoms: _56  and  _57
REMARK   27  A    between atoms: _56  and  _59
REMARK   28  A    between atoms: _59  and  _60
REMARK   29  A    between atoms: _65  and  _67
REMARK   30  A    between atoms: _67  and  _68
REMARK   31  A    between atoms: _67  and  _70
REMARK   32  A    between atoms: _70  and  _71
REMARK   33  A    between atoms: _71  and  _72
REMARK   34  A    between atoms: _75  and  _77
REMARK   35  A    between atoms: _77  and  _78
REMARK   36  A    between atoms: _77  and  _80
REMARK   37  A    between atoms: _80  and  _81
REMARK   38  A    between atoms: _84  and  _86
REMARK   39  A    between atoms: _86  and  _87
REMARK   40  A    between atoms: _86  and  _89
REMARK   41  A    between atoms: _89  and  _90
REMARK   42  A    between atoms: _90  and  _91
REMARK   43  A    between atoms: _91  and  _92
REMARK   44  A    between atoms: _101  and  _103
REMARK   45  A    between atoms: _103  and  _104
REMARK   46  A    between atoms: _103  and  _106
REMARK   47  A    between atoms: _106  and  _107
REMARK   48  A    between atoms: _110  and  _112
REMARK   49  A    between atoms: _112  and  _113
REMARK   50  A    between atoms: _112  and  _115
REMARK   51  A    between atoms: _115  and  _116
REMARK   52  A    between atoms: _119  and  _121
REMARK   53  A    between atoms: _121  and  _122
REMARK   54  A    between atoms: _124  and  _126
REMARK   55  A    between atoms: _126  and  _127
REMARK   56  A    between atoms: _126  and  _129
REMARK   57  A    between atoms: _129  and  _130
REMARK   58  A    between atoms: _130  and  _131
REMARK   59  A    between atoms: _134  and  _136
REMARK   60  A    between atoms: _136  and  _137
REMARK   61  A    between atoms: _136  and  _139
REMARK   62  A    between atoms: _139  and  _140
REMARK   63  A    between atoms: _145  and  _146
REMARK   64  A    between atoms: _148  and  _150
REMARK   65  A    between atoms: _150  and  _151
REMARK   66  A    between atoms: _150  and  _153
REMARK   67  A    between atoms: _153  and  _154
REMARK   68  A    between atoms: _154  and  _155
REMARK   69  A    between atoms: _155  and  _156
REMARK   70  A    between atoms: _156  and  _157
REMARK   71  A    between atoms: _161  and  _163
REMARK   72  A    between atoms: _163  and  _164
REMARK   73  A    between atoms: _163  and  _166
REMARK   74  A    between atoms: _166  and  _167
REMARK   75  A    between atoms: _170  and  _172
REMARK   76  A    between atoms: _172  and  _173
REMARK   77  A    between atoms: _172  and  _175
REMARK   78  A    between atoms: _175  and  _176
REMARK   79  A    between atoms: _181  and  _183
REMARK   80  A    between atoms: _183  and  _184
REMARK   81  A    between atoms: _183  and  _186
REMARK   82  A    between atoms: _186  and  _187
REMARK   83  A    between atoms: _190  and  _192
REMARK   84  A    between atoms: _192  and  _193
REMARK   85  A    between atoms: _192  and  _195
REMARK   86  A    between atoms: _195  and  _196
REMARK   87  A    between atoms: _202  and  _204
REMARK   88  A    between atoms: _204  and  _205
REMARK   89  A    between atoms: _207  and  _209
REMARK   90  A    between atoms: _209  and  _210
REMARK   91  A    between atoms: _209  and  _212
REMARK   92  A    between atoms: _212  and  _213
REMARK   93  A    between atoms: _218  and  _219
REMARK   94  A    between atoms: _221  and  _223
REMARK   95  A    between atoms: _223  and  _224
REMARK   96  A    between atoms: _223  and  _226
REMARK   97  A    between atoms: _226  and  _227
REMARK   98  A    between atoms: _227  and  _228
REMARK   99  A    between atoms: _228  and  _229
REMARK  100  A    between atoms: _238  and  _240
REMARK  101  A    between atoms: _240  and  _241
REMARK  102  A    between atoms: _243  and  _245
REMARK  103  A    between atoms: _245  and  _246
REMARK  104  A    between atoms: _248  and  _250
REMARK  105  A    between atoms: _250  and  _251
REMARK  106  A    between atoms: _250  and  _253
REMARK  107  A    between atoms: _253  and  _254
REMARK  108  A    between atoms: _257  and  _259
REMARK  109  A    between atoms: _259  and  _260
REMARK  110  A    between atoms: _259  and  _262
REMARK  111  A    between atoms: _262  and  _263
REMARK  112  A    between atoms: _266  and  _268
REMARK  113  A    between atoms: _268  and  _269
REMARK  114  A    between atoms: _268  and  _271
REMARK  115  A    between atoms: _271  and  _272
REMARK  116  A    between atoms: _275  and  _277
REMARK  117  A    between atoms: _277  and  _278
REMARK  118  A    between atoms: _277  and  _280
REMARK  119  A    between atoms: _280  and  _281
REMARK  120  A    between atoms: _286  and  _287
REMARK  121  A    between atoms: _289  and  _291
REMARK  122  A    between atoms: _291  and  _292
REMARK  123  A    between atoms: _291  and  _294
REMARK  124  A    between atoms: _294  and  _295
REMARK  125  A    between atoms: _297  and  _299
REMARK  126  A    between atoms: _299  and  _300
REMARK  127  A    between atoms: _299  and  _302
REMARK  128  A    between atoms: _306  and  _307
REMARK  129  A    between atoms: _312  and  _314
REMARK  130  A    between atoms: _314  and  _315
REMARK  131  A    between atoms: _318  and  _320
REMARK  132  A    between atoms: _320  and  _321
REMARK  133  A    between atoms: _324  and  _326
REMARK  134  A    between atoms: _326  and  _327
REMARK  135  A    between atoms: _326  and  _329
REMARK  136  A    between atoms: _329  and  _330
REMARK  137  A    between atoms: _330  and  _331
REMARK  138  A    between atoms: _334  and  _336
REMARK  139  A    between atoms: _336  and  _337
REMARK  140  A    between atoms: _336  and  _339
REMARK  141  A    between atoms: _339  and  _340
REMARK  142  A    between atoms: _346  and  _347
REMARK  143  A    between atoms: _352  and  _354
REMARK  144  A    between atoms: _354  and  _355
REMARK  145  A    between atoms: _354  and  _357
REMARK  146  A    between atoms: _360  and  _362
REMARK  147  A    between atoms: _362  and  _363
REMARK  148  A    between atoms: _362  and  _365
REMARK  149  A    between atoms: _365  and  _366
REMARK  150  A    between atoms: _368  and  _370
REMARK  151  A    between atoms: _370  and  _371
REMARK  152  A    between atoms: _370  and  _373
REMARK  153  A    between atoms: _376  and  _378
REMARK  154  A    between atoms: _378  and  _379
REMARK  155  A    between atoms: _378  and  _381
REMARK  156  A    between atoms: _384  and  _386
REMARK  157  A    between atoms: _386  and  _387
REMARK  158  A    between atoms: _386  and  _389
REMARK  159  A    between atoms: _389  and  _390
REMARK  160  A    between atoms: _393  and  _395
REMARK  161  A    between atoms: _395  and  _396
REMARK  162  A    between atoms: _395  and  _398
REMARK  163  A    between atoms: _398  and  _399
REMARK  164  A    between atoms: _399  and  _400
REMARK  165  A    between atoms: _405  and  _407
REMARK  166  A    between atoms: _407  and  _408
REMARK  167  A    between atoms: _412  and  _413
REMARK  168  A    between atoms: _418  and  _420
REMARK  169  A    between atoms: _420  and  _421
REMARK  170  A    between atoms: _420  and  _423
REMARK  171  A    between atoms: _423  and  _424
REMARK  172  A    between atoms: _427  and  _429
REMARK  173  A    between atoms: _429  and  _430
REMARK  174  A    between atoms: _429  and  _432
REMARK  175  A    between atoms: _432  and  _433
REMARK  176  A    between atoms: _436  and  _438
REMARK  177  A    between atoms: _438  and  _439
REMARK  178  A    between atoms: _438  and  _441
REMARK  179  A    between atoms: _441  and  _442
REMARK  180  A    between atoms: _445  and  _447
REMARK  181  A    between atoms: _447  and  _448
REMARK  182  A    between atoms: _447  and  _450
REMARK  183  A    between atoms: _450  and  _451
REMARK  184  A    between atoms: _451  and  _452
REMARK  185  A    between atoms: _452  and  _453
REMARK  186  A    between atoms: _463  and  _464
REMARK  187  A    between atoms: _469  and  _471
REMARK  188  A    between atoms: _471  and  _472
REMARK  189  A    between atoms: _471  and  _474
REMARK  190  A    between atoms: _474  and  _475
REMARK  191  A    between atoms: _478  and  _480
REMARK  192  A    between atoms: _480  and  _481
REMARK  193  A    between atoms: _480  and  _483
REMARK  194  A    between atoms: _483  and  _484
REMARK  195  A    between atoms: _487  and  _489
REMARK  196  A    between atoms: _489  and  _490
REMARK  197  A    between atoms: _489  and  _492
REMARK  198  A    between atoms: _492  and  _493
REMARK  199  A    between atoms: _497  and  _498
REMARK  200  A    between atoms: _503  and  _505
REMARK  201  A    between atoms: _505  and  _506
REMARK  202  A    between atoms: _505  and  _508
REMARK  203  A    between atoms: _508  and  _509
REMARK  204  A    between atoms: _512  and  _514
REMARK  205  A    between atoms: _514  and  _515
REMARK  206  A    between atoms: _514  and  _517
REMARK  207  A    between atoms: _517  and  _518
REMARK  208  A    between atoms: _518  and  _519
REMARK  209  A    between atoms: _519  and  _520
REMARK  210  A    between atoms: _529  and  _531
REMARK  211  A    between atoms: _531  and  _532
REMARK  212  A    between atoms: _531  and  _534
REMARK  213  A    between atoms: _537  and  _539
REMARK  214  A    between atoms: _539  and  _540
REMARK  215  A    between atoms: _539  and  _542
REMARK  216  A    between atoms: _542  and  _543
REMARK  217  A    between atoms: _546  and  _548
REMARK  218  A    between atoms: _548  and  _549
REMARK  219  A    between atoms: _548  and  _551
REMARK  220  A    between atoms: _551  and  _552
REMARK  221  A    between atoms: _552  and  _553
REMARK  222  A    between atoms: _558  and  _560
REMARK  223  A    between atoms: _560  and  _561
REMARK  224  A    between atoms: _563  and  _565
REMARK  225  A    between atoms: _565  and  _566
REMARK  226  A    between atoms: _565  and  _568
REMARK  227  A    between atoms: _568  and  _569
REMARK  228  A    between atoms: _572  and  _574
REMARK  229  A    between atoms: _574  and  _575
REMARK  230  A    between atoms: _574  and  _577
REMARK  231  A    between atoms: _577  and  _578
REMARK  232  A    between atoms: _580  and  _582
REMARK  233  A    between atoms: _582  and  _583
REMARK  234  A    between atoms: _582  and  _585
REMARK  235  A    between atoms: _585  and  _586
REMARK  236  A    between atoms: _589  and  _591
REMARK  237  A    between atoms: _591  and  _592
REMARK  238  A    between atoms: _591  and  _594
REMARK  239  A    between atoms: _594  and  _595
REMARK  240  A    between atoms: _595  and  _596
REMARK  241  A    between atoms: _599  and  _601
REMARK  242  A    between atoms: _601  and  _602
REMARK  243  A    between atoms: _601  and  _604
REMARK  244  A    between atoms: _604  and  _605
REMARK  245  A    between atoms: _610  and  _612
REMARK  246  A    between atoms: _612  and  _613
REMARK  247  A    between atoms: _612  and  _615
REMARK  248  A    between atoms: _615  and  _616
REMARK  249  A    between atoms: _619  and  _621
REMARK  250  A    between atoms: _621  and  _622
REMARK  251  A    between atoms: _625  and  _627
REMARK  252  A    between atoms: _627  and  _628
REMARK  253  A    between atoms: _627  and  _630
REMARK  254  A    between atoms: _630  and  _631
REMARK  255  A    between atoms: _637  and  _639
REMARK  256  A    between atoms: _639  and  _640
REMARK  257  A    between atoms: _642  and  _644
REMARK  258  A    between atoms: _644  and  _645
REMARK  259  A    between atoms: _644  and  _647
REMARK  260  A    between atoms: _647  and  _648
REMARK  261  A    between atoms: _650  and  _652
REMARK  262  A    between atoms: _652  and  _653
REMARK                            x       y       z     vdW  Elec       q    Type
REMARK                         _______ _______ _______ _____ _____    ______ ____
ROOT
ATOM      1  CA  SER A   3       8.499 -11.058  47.509  0.00  0.00    +0.178 C 
ENDROOT
BRANCH   1   4
ATOM      2  C   VAL A   2       9.482 -10.986  49.752  0.00  0.00    +0.241 C 
ATOM      3  O   VAL A   2       8.402 -11.144  50.309  0.00  0.00    -0.273 OA
ATOM      4  N   SER A   3       9.613 -10.883  48.433  0.00  0.00    -0.295 N 
ATOM      5  H   SER A   3      10.553 -10.668  48.043  0.00  0.00    +0.150 HD
BRANCH   2   6
ATOM      6  CA  VAL A   2      10.778 -10.875  50.557  0.00  0.00    +0.148 C 
BRANCH   6   8
ATOM      7  C   PRO A   1      11.652  -9.032  51.893  0.00  0.00    +0.239 C 
ATOM      8  N   VAL A   2      10.655  -9.864  51.604  0.00  0.00    -0.297 N 
ATOM      9  H   VAL A   2       9.765  -9.793  52.137  0.00  0.00    +0.150 HD
ATOM     10  O   PRO A   1      12.764  -9.082  51.349  0.00  0.00    -0.274 OA
BRANCH   7  15
ATOM     11  N   PRO A   1      12.555  -7.895  53.864  0.00  0.00    -0.210 NA
ATOM     12  CD  PRO A   1      13.063  -6.511  53.909  0.00  0.00    +0.089 C 
ATOM     13  CG  PRO A   1      11.933  -5.725  53.353  0.00  0.00    +0.021 C 
ATOM     14  CB  PRO A   1      11.266  -6.610  52.389  0.00  0.00    +0.028 C 
ATOM     15  CA  PRO A   1      11.390  -8.010  52.993  0.00  0.00    +0.149 C 
ENDBRANCH   7  15
ENDBRANCH   6   8
BRANCH   6  16
ATOM     16  CB  VAL A   2      11.255 -12.277  51.112  0.00  0.00    +0.027 C 
ATOM     17  CG2 VAL A   2      10.243 -12.892  52.070  0.00  0.00    +0.002 C 
ATOM     18  CG1 VAL A   2      11.582 -13.252  49.965  0.00  0.00    +0.002 C 
ENDBRANCH   6  16
ENDBRANCH   2   6
ENDBRANCH   1   4
BRANCH   1  19
ATOM     19  C   SER A   3       8.496 -12.500  47.024  0.00  0.00    +0.243 C 
ATOM     20  N   VAL A   4       7.325 -13.135  47.020  0.00  0.00    -0.297 N 
ATOM     21  H   VAL A   4       6.471 -12.631  47.335  0.00  0.00    +0.150 HD
ATOM     22  O   SER A   3       9.546 -13.041  46.690  0.00  0.00    -0.273 OA
BRANCH  20  23
ATOM     23  CA  VAL A   4       7.215 -14.526  46.581  0.00  0.00    +0.149 C 
BRANCH  23  24
ATOM     24  C   VAL A   4       6.069 -14.709  45.584  0.00  0.00    +0.241 C 
ATOM     25  O   VAL A   4       4.885 -14.570  45.934  0.00  0.00    -0.273 OA
ATOM     26  N   VAL A   5       6.445 -15.018  44.341  0.00  0.00    -0.298 N 
ATOM     27  H   VAL A   5       7.461 -15.051  44.122  0.00  0.00    +0.150 HD
BRANCH  26  28
ATOM     28  CA  VAL A   5       5.493 -15.312  43.276  0.00  0.00    +0.137 C 
BRANCH  28  29
ATOM     29  CB  VAL A   5       6.194 -15.460  41.893  0.00  0.00    +0.026 C 
ATOM     30  CG2 VAL A   5       6.960 -16.792  41.764  0.00  0.00    +0.002 C 
ATOM     31  CG1 VAL A   5       5.184 -15.279  40.754  0.00  0.00    +0.002 C 
ENDBRANCH  28  29
BRANCH  28  32
ATOM     32  C   VAL A   5       4.662 -16.540  43.654  0.00  0.00    +0.227 C 
ATOM     33  O   VAL A   5       5.210 -17.619  43.964  0.00  0.00    -0.286 OA
ENDBRANCH  28  32
ENDBRANCH  26  28
ENDBRANCH  23  24
BRANCH  23  34
ATOM     34  CB  VAL A   4       7.077 -15.545  47.771  0.00  0.00    +0.027 C 
ATOM     35  CG2 VAL A   4       8.168 -15.331  48.849  0.00  0.00    +0.002 C 
ATOM     36  CG1 VAL A   4       7.126 -16.997  47.254  0.00  0.00    +0.002 C 
ENDBRANCH  23  34
ENDBRANCH  20  23
ENDBRANCH   1  19
BRANCH   1  37
ATOM     37  CB  SER A   3       8.635 -10.066  46.352  0.00  0.00    +0.166 C 
BRANCH  37  38
ATOM     38  OG  SER A   3       7.995 -10.509  45.171  0.00  0.00    -0.380 OA
ATOM     39  H   SER A   3       8.114  -9.832  44.459  0.00  0.00    +0.211 HD
ENDBRANCH  37  38
ENDBRANCH   1  37
TORSDOF 14
REMARK  Name = ../refined-set-2016/2gvj/2gvj_pocket.pdb
REMARK  262 active torsions:
REMARK  status: ('A' for Active; 'I' for Inactive)
REMARK    1  A    between atoms: _1  and  _3
REMARK    2  A    between atoms: _3  and  _4
REMARK    3  A    between atoms: _3  and  _6
REMARK    4  A    between atoms: _6  and  _7
REMARK    5  A    between atoms: _10  and  _12
REMARK    6  A    between atoms: _12  and  _13
REMARK    7  A    between atoms: _12  and  _15
REMARK    8  A    between atoms: _15  and  _16
REMARK    9  A    between atoms: _19  and  _21
REMARK   10  A    between atoms: _21  and  _22
REMARK   11  A    between atoms: _21  and  _24
REMARK   12  A    between atoms: _24  and  _25
REMARK   13  A    between atoms: _27  and  _29
REMARK   14  A    between atoms: _29  and  _30
REMARK   15  A    between atoms: _29  and  _32
REMARK   16  A    between atoms: _32  and  _33
REMARK   17  A    between atoms: _38  and  _39
REMARK   18  A    between atoms: _41  and  _43
REMARK   19  A    between atoms: _43  and  _44
REMARK   20  A    between atoms: _43  and  _46
REMARK   21  A    between atoms: _46  and  _47
REMARK   22  A    between atoms: _47  and  _48
REMARK   23  A    between atoms: _48  and  _49
REMARK   24  A    between atoms: _49  and  _50
REMARK   25  A    between atoms: _54  and  _56
REMARK   26  A    between atoms: _56  and  _57
REMARK   27  A    between atoms: _56  and  _59
REMARK   28  A    between atoms: _59  and  _60
REMARK   29  A    between atoms: _65  and  _67
REMARK   30  A    between atoms: _67  and  _68
REMARK   31  A    between atoms: _67  and  _70
REMARK   32  A    between atoms: _70  and  _71
REMARK   33  A    between atoms: _71  and  _72
REMARK   34  A    between atoms: _75  and  _77
REMARK   35  A    between atoms: _77  and  _78
REMARK   36  A    between atoms: _77  and  _80
REMARK   37  A    between atoms: _80  and  _81
REMARK   38  A    between atoms: _84  and  _86
REMARK   39  A    between atoms: _86  and  _87
REMARK   40  A    between atoms: _86  and  _89
REMARK   41  A    between atoms: _89  and  _90
REMARK   42  A    between atoms: _90  and  _91
REMARK   43  A    between atoms: _91  and  _92
REMARK   44  A    between atoms: _101  and  _103
REMARK   45  A    between atoms: _103  and  _104
REMARK   46  A    between atoms: _103  and  _106
REMARK   47  A    between atoms: _106  and  _107
REMARK   48  A    between atoms: _110  and  _112
REMARK   49  A    between atoms: _112  and  _113
REMARK   50  A    between atoms: _112  and  _115
REMARK   51  A    between atoms: _115  and  _116
REMARK   52  A    between atoms: _119  and  _121
REMARK   53  A    between atoms: _121  and  _122
REMARK   54  A    between atoms: _124  and  _126
REMARK   55  A    between atoms: _126  and  _127
REMARK   56  A    between atoms: _126  and  _129
REMARK   57  A    between atoms: _129  and  _130
REMARK   58  A    between atoms: _130  and  _131
REMARK   59  A    between atoms: _134  and  _136
REMARK   60  A    between atoms: _136  and  _137
REMARK   61  A    between atoms: _136  and  _139
REMARK   62  A    between atoms: _139  and  _140
REMARK   63  A    between atoms: _145  and  _146
REMARK   64  A    between atoms: _148  and  _150
REMARK   65  A    between atoms: _150  and  _151
REMARK   66  A    between atoms: _150  and  _153
REMARK   67  A    between atoms: _153  and  _154
REMARK   68  A    between atoms: _154  and  _155
REMARK   69  A    between atoms: _155  and  _156
REMARK   70  A    between atoms: _156  and  _157
REMARK   71  A    between atoms: _161  and  _163
REMARK   72  A    between atoms: _163  and  _164
REMARK   73  A    between atoms: _163  and  _166
REMARK   74  A    between atoms: _166  and  _167
REMARK   75  A    between atoms: _170  and  _172
REMARK   76  A    between atoms: _172  and  _173
REMARK   77  A    between atoms: _172  and  _175
REMARK   78  A    between atoms: _175  and  _176
REMARK   79  A    between atoms: _181  and  _183
REMARK   80  A    between atoms: _183  and  _184
REMARK   81  A    between atoms: _183  and  _186
REMARK   82  A    between atoms: _186  and  _187
REMARK   83  A    between atoms: _190  and  _192
REMARK   84  A    between atoms: _192  and  _193
REMARK   85  A    between atoms: _192  and  _195
REMARK   86  A    between atoms: _195  and  _196
REMARK   87  A    between atoms: _202  and  _204
REMARK   88  A    between atoms: _204  and  _205
REMARK   89  A    between atoms: _207  and  _209
REMARK   90  A    between atoms: _209  and  _210
REMARK   91  A    between atoms: _209  and  _212
REMARK   92  A    between atoms: _212  and  _213
REMARK   93  A    between atoms: _218  and  _219
REMARK   94  A    between atoms: _221  and  _223
REMARK   95  A    between atoms: _223  and  _224
REMARK   96  A    between atoms: _223  and  _226
REMARK   97  A    between atoms: _226  and  _227
REMARK   98  A    between atoms: _227  and  _228
REMARK   99  A    between atoms: _228  and  _229
REMARK  100  A    between atoms: _238  and  _240
REMARK  101  A    between atoms: _240  and  _241
REMARK  102  A    between atoms: _243  and  _245
REMARK  103  A    between atoms: _245  and  _246
REMARK  104  A    between atoms: _248  and  _250
REMARK  105  A    between atoms: _250  and  _251
REMARK  106  A    between atoms: _250  and  _253
REMARK  107  A    between atoms: _253  and  _254
REMARK  108  A    between atoms: _257  and  _259
REMARK  109  A    between atoms: _259  and  _260
REMARK  110  A    between atoms: _259  and  _262
REMARK  111  A    between atoms: _262  and  _263
REMARK  112  A    between atoms: _266  and  _268
REMARK  113  A    between atoms: _268  and  _269
REMARK  114  A    between atoms: _268  and  _271
REMARK  115  A    between atoms: _271  and  _272
REMARK  116  A    between atoms: _275  and  _277
REMARK  117  A    between atoms: _277  and  _278
REMARK  118  A    between atoms: _277  and  _280
REMARK  119  A    between atoms: _280  and  _281
REMARK  120  A    between atoms: _286  and  _287
REMARK  121  A    between atoms: _289  and  _291
REMARK  122  A    between atoms: _291  and  _292
REMARK  123  A    between atoms: _291  and  _294
REMARK  124  A    between atoms: _294  and  _295
REMARK  125  A    between atoms: _297  and  _299
REMARK  126  A    between atoms: _299  and  _300
REMARK  127  A    between atoms: _299  and  _302
REMARK  128  A    between atoms: _306  and  _307
REMARK  129  A    between atoms: _312  and  _314
REMARK  130  A    between atoms: _314  and  _315
REMARK  131  A    between atoms: _318  and  _320
REMARK  132  A    between atoms: _320  and  _321
REMARK  133  A    between atoms: _324  and  _326
REMARK  134  A    between atoms: _326  and  _327
REMARK  135  A    between atoms: _326  and  _329
REMARK  136  A    between atoms: _329  and  _330
REMARK  137  A    between atoms: _330  and  _331
REMARK  138  A    between atoms: _334  and  _336
REMARK  139  A    between atoms: _336  and  _337
REMARK  140  A    between atoms: _336  and  _339
REMARK  141  A    between atoms: _339  and  _340
REMARK  142  A    between atoms: _346  and  _347
REMARK  143  A    between atoms: _352  and  _354
REMARK  144  A    between atoms: _354  and  _355
REMARK  145  A    between atoms: _354  and  _357
REMARK  146  A    between atoms: _360  and  _362
REMARK  147  A    between atoms: _362  and  _363
REMARK  148  A    between atoms: _362  and  _365
REMARK  149  A    between atoms: _365  and  _366
REMARK  150  A    between atoms: _368  and  _370
REMARK  151  A    between atoms: _370  and  _371
REMARK  152  A    between atoms: _370  and  _373
REMARK  153  A    between atoms: _376  and  _378
REMARK  154  A    between atoms: _378  and  _379
REMARK  155  A    between atoms: _378  and  _381
REMARK  156  A    between atoms: _384  and  _386
REMARK  157  A    between atoms: _386  and  _387
REMARK  158  A    between atoms: _386  and  _389
REMARK  159  A    between atoms: _389  and  _390
REMARK  160  A    between atoms: _393  and  _395
REMARK  161  A    between atoms: _395  and  _396
REMARK  162  A    between atoms: _395  and  _398
REMARK  163  A    between atoms: _398  and  _399
REMARK  164  A    between atoms: _399  and  _400
REMARK  165  A    between atoms: _405  and  _407
REMARK  166  A    between atoms: _407  and  _408
REMARK  167  A    between atoms: _412  and  _413
REMARK  168  A    between atoms: _418  and  _420
REMARK  169  A    between atoms: _420  and  _421
REMARK  170  A    between atoms: _420  and  _423
REMARK  171  A    between atoms: _423  and  _424
REMARK  172  A    between atoms: _427  and  _429
REMARK  173  A    between atoms: _429  and  _430
REMARK  174  A    between atoms: _429  and  _432
REMARK  175  A    between atoms: _432  and  _433
REMARK  176  A    between atoms: _436  and  _438
REMARK  177  A    between atoms: _438  and  _439
REMARK  178  A    between atoms: _438  and  _441
REMARK  179  A    between atoms: _441  and  _442
REMARK  180  A    between atoms: _445  and  _447
REMARK  181  A    between atoms: _447  and  _448
REMARK  182  A    between atoms: _447  and  _450
REMARK  183  A    between atoms: _450  and  _451
REMARK  184  A    between atoms: _451  and  _452
REMARK  185  A    between atoms: _452  and  _453
REMARK  186  A    between atoms: _463  and  _464
REMARK  187  A    between atoms: _469  and  _471
REMARK  188  A    between atoms: _471  and  _472
REMARK  189  A    between atoms: _471  and  _474
REMARK  190  A    between atoms: _474  and  _475
REMARK  191  A    between atoms: _478  and  _480
REMARK  192  A    between atoms: _480  and  _481
REMARK  193  A    between atoms: _480  and  _483
REMARK  194  A    between atoms: _483  and  _484
REMARK  195  A    between atoms: _487  and  _489
REMARK  196  A    between atoms: _489  and  _490
REMARK  197  A    between atoms: _489  and  _492
REMARK  198  A    between atoms: _492  and  _493
REMARK  199  A    between atoms: _497  and  _498
REMARK  200  A    between atoms: _503  and  _505
REMARK  201  A    between atoms: _505  and  _506
REMARK  202  A    between atoms: _505  and  _508
REMARK  203  A    between atoms: _508  and  _509
REMARK  204  A    between atoms: _512  and  _514
REMARK  205  A    between atoms: _514  and  _515
REMARK  206  A    between atoms: _514  and  _517
REMARK  207  A    between atoms: _517  and  _518
REMARK  208  A    between atoms: _518  and  _519
REMARK  209  A    between atoms: _519  and  _520
REMARK  210  A    between atoms: _529  and  _531
REMARK  211  A    between atoms: _531  and  _532
REMARK  212  A    between atoms: _531  and  _534
REMARK  213  A    between atoms: _537  and  _539
REMARK  214  A    between atoms: _539  and  _540
REMARK  215  A    between atoms: _539  and  _542
REMARK  216  A    between atoms: _542  and  _543
REMARK  217  A    between atoms: _546  and  _548
REMARK  218  A    between atoms: _548  and  _549
REMARK  219  A    between atoms: _548  and  _551
REMARK  220  A    between atoms: _551  and  _552
REMARK  221  A    between atoms: _552  and  _553
REMARK  222  A    between atoms: _558  and  _560
REMARK  223  A    between atoms: _560  and  _561
REMARK  224  A    between atoms: _563  and  _565
REMARK  225  A    between atoms: _565  and  _566
REMARK  226  A    between atoms: _565  and  _568
REMARK  227  A    between atoms: _568  and  _569
REMARK  228  A    between atoms: _572  and  _574
REMARK  229  A    between atoms: _574  and  _575
REMARK  230  A    between atoms: _574  and  _577
REMARK  231  A    between atoms: _577  and  _578
REMARK  232  A    between atoms: _580  and  _582
REMARK  233  A    between atoms: _582  and  _583
REMARK  234  A    between atoms: _582  and  _585
REMARK  235  A    between atoms: _585  and  _586
REMARK  236  A    between atoms: _589  and  _591
REMARK  237  A    between atoms: _591  and  _592
REMARK  238  A    between atoms: _591  and  _594
REMARK  239  A    between atoms: _594  and  _595
REMARK  240  A    between atoms: _595  and  _596
REMARK  241  A    between atoms: _599  and  _601
REMARK  242  A    between atoms: _601  and  _602
REMARK  243  A    between atoms: _601  and  _604
REMARK  244  A    between atoms: _604  and  _605
REMARK  245  A    between atoms: _610  and  _612
REMARK  246  A    between atoms: _612  and  _613
REMARK  247  A    between atoms: _612  and  _615
REMARK  248  A    between atoms: _615  and  _616
REMARK  249  A    between atoms: _619  and  _621
REMARK  250  A    between atoms: _621  and  _622
REMARK  251  A    between atoms: _625  and  _627
REMARK  252  A    between atoms: _627  and  _628
REMARK  253  A    between atoms: _627  and  _630
REMARK  254  A    between atoms: _630  and  _631
REMARK  255  A    between atoms: _637  and  _639
REMARK  256  A    between atoms: _639  and  _640
REMARK  257  A    between atoms: _642  and  _644
REMARK  258  A    between atoms: _644  and  _645
REMARK  259  A    between atoms: _644  and  _647
REMARK  260  A    between atoms: _647  and  _648
REMARK  261  A    between atoms: _650  and  _652
REMARK  262  A    between atoms: _652  and  _653
REMARK                            x       y       z     vdW  Elec       q    Type
REMARK                         _______ _______ _______ _____ _____    ______ ____
ROOT
ATOM      1  CA  ILE A   6       5.106  -9.550  49.764  0.00  0.00    +0.149 C 
ENDROOT
BRANCH   1   4
ATOM      2  C   LEU A   5       5.305 -10.265  52.061  0.00  0.00    +0.241 C 
ATOM      3  O   LEU A   5       4.257  -9.686  52.380  0.00  0.00    -0.273 OA
ATOM      4  N   ILE A   6       5.804 -10.232  50.831  0.00  0.00    -0.297 N 
ATOM      5  H   ILE A   6       6.710 -10.703  50.632  0.00  0.00    +0.150 HD
BRANCH   2   6
ATOM      6  CA  LEU A   5       6.106 -11.055  53.087  0.00  0.00    +0.149 C 
BRANCH   6   8
ATOM      7  C   PRO A   4       7.097  -9.185  54.256  0.00  0.00    +0.241 C 
ATOM      8  N   LEU A   5       6.226 -10.191  54.248  0.00  0.00    -0.297 N 
ATOM      9  H   LEU A   5       5.626 -10.360  55.080  0.00  0.00    +0.150 HD
ATOM     10  O   PRO A   4       8.067  -9.126  53.497  0.00  0.00    -0.273 OA
BRANCH   7  14
ATOM     11  C   ALA A   3       9.020  -8.123  56.405  0.00  0.00    +0.244 C 
ATOM     12  O   ALA A   3       8.836  -9.287  56.766  0.00  0.00    -0.273 OA
ATOM     13  N   PRO A   4       8.108  -7.443  55.700  0.00  0.00    -0.272 N 
ATOM     14  CA  PRO A   4       6.861  -8.082  55.286  0.00  0.00    +0.152 C 
ATOM     15  CB  PRO A   4       6.078  -6.932  54.637  0.00  0.00    +0.031 C 
ATOM     16  CG  PRO A   4       7.138  -5.995  54.152  0.00  0.00    +0.024 C 
ATOM     17  CD  PRO A   4       8.186  -6.046  55.228  0.00  0.00    +0.094 C 
BRANCH  11  18
ATOM     18  CA  ALA A   3      10.336  -7.413  56.750  0.00  0.00    +0.149 C 
ATOM     19  CB  ALA A   3      11.352  -8.403  57.309  0.00  0.00    +0.031 C 
BRANCH  18  21
ATOM     20  C   GLN A   2      10.877  -5.184  57.564  0.00  0.00    +0.241 C 
ATOM     21  N   ALA A   3      10.168  -6.305  57.683  0.00  0.00    -0.297 N 
ATOM     22  H   ALA A   3       9.480  -6.392  58.458  0.00  0.00    +0.150 HD
ATOM     23  O   GLN A   2      11.605  -4.966  56.597  0.00  0.00    -0.273 OA
BRANCH  20  24
ATOM     24  CA  GLN A   2      10.737  -4.150  58.693  0.00  0.00    +0.149 C 
BRANCH  24  26
ATOM     25  C   THR A   1       8.324  -4.296  59.194  0.00  0.00    +0.241 C 
ATOM     26  N   GLN A   2       9.598  -4.466  59.551  0.00  0.00    -0.297 N 
ATOM     27  H   GLN A   2       9.792  -4.847  60.499  0.00  0.00    +0.150 HD
ATOM     28  O   THR A   1       7.963  -3.751  58.142  0.00  0.00    -0.274 OA
BRANCH  25  29
ATOM     29  CA  THR A   1       7.296  -4.819  60.188  0.00  0.00    +0.172 C 
BRANCH  29  30
ATOM     30  CB  THR A   1       6.815  -3.678  61.123  0.00  0.00    +0.135 C 
ATOM     31  CG2 THR A   1       6.221  -2.508  60.345  0.00  0.00    +0.034 C 
BRANCH  30  32
ATOM     32  OG1 THR A   1       5.707  -4.148  61.891  0.00  0.00    -0.383 OA
ATOM     33  HG1 THR A   1       5.989  -4.928  62.431  0.00  0.00    +0.210 HD
ENDBRANCH  30  32
ENDBRANCH  29  30
BRANCH  29  34
ATOM     34  N   THR A   1       7.861  -5.899  60.995  0.00  0.00    -0.236 NA
ATOM     35  H   THR A   1       7.968  -5.737  62.017  0.00  0.00    +0.142 HD
ENDBRANCH  29  34
ENDBRANCH  25  29
ENDBRANCH  24  26
BRANCH  24  36
ATOM     36  CB  GLN A   2      12.036  -4.099  59.521  0.00  0.00    +0.039 C 
BRANCH  36  37
ATOM     37  CG  GLN A   2      11.958  -3.287  60.846  0.00  0.00    +0.087 C 
BRANCH  37  38
ATOM     38  CD  GLN A   2      13.231  -3.372  61.711  0.00  0.00    +0.219 C 
ATOM     39  NE2 GLN A   2      13.574  -2.265  62.360  0.00  0.00    -0.329 N 
ATOM     40 HE21 GLN A   2      14.423  -2.256  62.960  0.00  0.00    +0.145 HD
ATOM     41 HE22 GLN A   2      12.993  -1.407  62.268  0.00  0.00    +0.145 HD
ATOM     42  OE1 GLN A   2      13.889  -4.422  61.786  0.00  0.00    -0.275 OA
ENDBRANCH  37  38
ENDBRANCH  36  37
ENDBRANCH  24  36
ENDBRANCH  20  24
ENDBRANCH  18  21
ENDBRANCH  11  18
ENDBRANCH   7  14
ENDBRANCH   6   8
BRANCH   6  43
ATOM     43  CB  LEU A   5       5.401 -12.372  53.420  0.00  0.00    +0.029 C 
BRANCH  43  44
ATOM     44  CG  LEU A   5       4.911 -13.221  52.223  0.00  0.00    +0.002 C 
ATOM     45  CD2 LEU A   5       3.837 -14.207  52.641  0.00  0.00    +0.000 C 
ATOM     46  CD1 LEU A   5       6.060 -13.954  51.524  0.00  0.00    +0.000 C 
ENDBRANCH  43  44
ENDBRANCH   6  43
ENDBRANCH   2   6
ENDBRANCH   1   4
BRANCH   1  47
ATOM     47  C   ILE A   6       4.618 -10.591  48.746  0.00  0.00    +0.241 C 
ATOM     48  N   ILE A   7       3.320 -10.880  48.771  0.00  0.00    -0.297 N 
ATOM     49  H   ILE A   7       2.705 -10.393  49.453  0.00  0.00    +0.150 HD
ATOM     50  O   ILE A   6       5.407 -11.146  47.983  0.00  0.00    -0.273 OA
BRANCH  48  51
ATOM     51  CA  ILE A   7       2.738 -11.866  47.862  0.00  0.00    +0.149 C 
BRANCH  51  52
ATOM     52  C   ILE A   7       2.657 -11.270  46.467  0.00  0.00    +0.241 C 
ATOM     53  O   ILE A   7       2.116 -10.183  46.284  0.00  0.00    -0.273 OA
ATOM     54  N   ARG A   8       3.208 -11.989  45.494  0.00  0.00    -0.297 N 
ATOM     55  H   ARG A   8       3.654 -12.899  45.729  0.00  0.00    +0.150 HD
BRANCH  54  56
ATOM     56  CA  ARG A   8       3.206 -11.540  44.108  0.00  0.00    +0.149 C 
BRANCH  56  57
ATOM     57  C   ARG A   8       2.338 -12.411  43.190  0.00  0.00    +0.244 C 
ATOM     58  N   PRO A   9       1.145 -11.931  42.856  0.00  0.00    -0.272 N 
ATOM     59  CD  PRO A   9       0.405 -10.856  43.547  0.00  0.00    +0.094 C 
ATOM     60  CG  PRO A   9      -0.716 -10.541  42.603  0.00  0.00    +0.024 C 
ATOM     61  CB  PRO A   9      -0.973 -11.802  41.846  0.00  0.00    +0.031 C 
ATOM     62  CA  PRO A   9       0.389 -12.488  41.729  0.00  0.00    +0.152 C 
ATOM     63  O   ARG A   8       2.735 -13.511  42.807  0.00  0.00    -0.273 OA
BRANCH  62  64
ATOM     64  C   PRO A   9       1.062 -12.128  40.394  0.00  0.00    +0.241 C 
ATOM     65  O   PRO A   9       1.742 -11.101  40.310  0.00  0.00    -0.273 OA
ATOM     66  N   ASP A  10       0.866 -12.960  39.366  0.00  0.00    -0.298 N 
ATOM     67  H   ASP A  10       0.216 -13.764  39.479  0.00  0.00    +0.150 HD
BRANCH  66  68
ATOM     68  CA  ASP A  10       1.547 -12.764  38.083  0.00  0.00    +0.148 C 
BRANCH  68  69
ATOM     69  C   ASP A  10       0.776 -13.227  36.839  0.00  0.00    +0.227 C 
ATOM     70  O   ASP A  10       1.378 -13.449  35.791  0.00  0.00    -0.286 OA
ENDBRANCH  68  69
BRANCH  68  71
ATOM     71  CB  ASP A  10       2.942 -13.413  38.108  0.00  0.00    +0.142 C 
BRANCH  71  72
ATOM     72  CG  ASP A  10       3.816 -12.957  36.952  0.00  0.00    +0.367 C 
ATOM     73  OD2 ASP A  10       4.212 -11.777  36.815  0.00  0.00    -0.246 OA
ATOM     74  OD1 ASP A  10       4.142 -13.794  36.088  0.00  0.00    -0.246 OA
ENDBRANCH  71  72
ENDBRANCH  68  71
ENDBRANCH  66  68
ENDBRANCH  62  64
ENDBRANCH  56  57
BRANCH  56  75
ATOM     75  CB  ARG A   8       4.636 -11.456  43.567  0.00  0.00    +0.033 C 
BRANCH  75  76
ATOM     76  CG  ARG A   8       4.715 -10.998  42.122  0.00  0.00    +0.045 C 
BRANCH  76  77
ATOM     77  CD  ARG A   8       6.078 -10.474  41.708  0.00  0.00    +0.174 C 
BRANCH  77  78
ATOM     78  NE  ARG A   8       7.051 -11.542  41.491  0.00  0.00    -0.265 N 
ATOM     79  HE  ARG A   8       7.558 -11.913  42.320  0.00  0.00    +0.259 HD
ATOM     80  CZ  ARG A   8       7.330 -12.070  40.305  0.00  0.00    +0.342 C 
ATOM     81  NH2 ARG A   8       8.240 -13.029  40.197  0.00  0.00    -0.292 N 
ATOM     82 HH21 ARG A   8       8.738 -13.371  41.043  0.00  0.00    +0.255 HD
ATOM     83 HH22 ARG A   8       8.455 -13.439  39.266  0.00  0.00    +0.255 HD
ATOM     84  NH1 ARG A   8       6.702 -11.644  39.228  0.00  0.00    -0.292 N 
ATOM     85 HH11 ARG A   8       5.987 -10.893  39.306  0.00  0.00    +0.255 HD
ATOM     86 HH12 ARG A   8       6.922 -12.059  38.300  0.00  0.00    +0.255 HD
ENDBRANCH  77  78
ENDBRANCH  76  77
ENDBRANCH  75  76
ENDBRANCH  56  75
ENDBRANCH  54  56
ENDBRANCH  51  52
BRANCH  51  87
ATOM     87  CB  ILE A   7       1.338 -12.353  48.347  0.00  0.00    +0.027 C 
ATOM     88  CG2 ILE A   7       0.651 -13.204  47.271  0.00  0.00    +0.002 C 
BRANCH  87  89
ATOM     89  CG1 ILE A   7       1.469 -13.159  49.650  0.00  0.00    +0.002 C 
ATOM     90  CD1 ILE A   7       0.116 -13.618  50.240  0.00  0.00    +0.000 C 
ENDBRANCH  87  89
ENDBRANCH  51  87
ENDBRANCH  48  51
ENDBRANCH   1  47
BRANCH   1  91
ATOM     91  CB  ILE A   6       6.024  -8.460  49.147  0.00  0.00    +0.027 C 
ATOM     92  CG2 ILE A   6       5.257  -7.644  48.119  0.00  0.00    +0.002 C 
BRANCH  91  93
ATOM     93  CG1 ILE A   6       6.593  -7.558  50.264  0.00  0.00    +0.002 C 
ATOM     94  CD1 ILE A   6       7.859  -6.794  49.895  0.00  0.00    +0.000 C 
ENDBRANCH  91  93
ENDBRANCH   1  91
TORSDOF 35
REMARK  Name = ../refined-set-2016/2gvj/2gvj_pocket.pdb
REMARK  262 active torsions:
REMARK  status: ('A' for Active; 'I' for Inactive)
REMARK    1  A    between atoms: _1  and  _3
REMARK    2  A    between atoms: _3  and  _4
REMARK    3  A    between atoms: _3  and  _6
REMARK    4  A    between atoms: _6  and  _7
REMARK    5  A    between atoms: _10  and  _12
REMARK    6  A    between atoms: _12  and  _13
REMARK    7  A    between atoms: _12  and  _15
REMARK    8  A    between atoms: _15  and  _16
REMARK    9  A    between atoms: _19  and  _21
REMARK   10  A    between atoms: _21  and  _22
REMARK   11  A    between atoms: _21  and  _24
REMARK   12  A    between atoms: _24  and  _25
REMARK   13  A    between atoms: _27  and  _29
REMARK   14  A    between atoms: _29  and  _30
REMARK   15  A    between atoms: _29  and  _32
REMARK   16  A    between atoms: _32  and  _33
REMARK   17  A    between atoms: _38  and  _39
REMARK   18  A    between atoms: _41  and  _43
REMARK   19  A    between atoms: _43  and  _44
REMARK   20  A    between atoms: _43  and  _46
REMARK   21  A    between atoms: _46  and  _47
REMARK   22  A    between atoms: _47  and  _48
REMARK   23  A    between atoms: _48  and  _49
REMARK   24  A    between atoms: _49  and  _50
REMARK   25  A    between atoms: _54  and  _56
REMARK   26  A    between atoms: _56  and  _57
REMARK   27  A    between atoms: _56  and  _59
REMARK   28  A    between atoms: _59  and  _60
REMARK   29  A    between atoms: _65  and  _67
REMARK   30  A    between atoms: _67  and  _68
REMARK   31  A    between atoms: _67  and  _70
REMARK   32  A    between atoms: _70  and  _71
REMARK   33  A    between atoms: _71  and  _72
REMARK   34  A    between atoms: _75  and  _77
REMARK   35  A    between atoms: _77  and  _78
REMARK   36  A    between atoms: _77  and  _80
REMARK   37  A    between atoms: _80  and  _81
REMARK   38  A    between atoms: _84  and  _86
REMARK   39  A    between atoms: _86  and  _87
REMARK   40  A    between atoms: _86  and  _89
REMARK   41  A    between atoms: _89  and  _90
REMARK   42  A    between atoms: _90  and  _91
REMARK   43  A    between atoms: _91  and  _92
REMARK   44  A    between atoms: _101  and  _103
REMARK   45  A    between atoms: _103  and  _104
REMARK   46  A    between atoms: _103  and  _106
REMARK   47  A    between atoms: _106  and  _107
REMARK   48  A    between atoms: _110  and  _112
REMARK   49  A    between atoms: _112  and  _113
REMARK   50  A    between atoms: _112  and  _115
REMARK   51  A    between atoms: _115  and  _116
REMARK   52  A    between atoms: _119  and  _121
REMARK   53  A    between atoms: _121  and  _122
REMARK   54  A    between atoms: _124  and  _126
REMARK   55  A    between atoms: _126  and  _127
REMARK   56  A    between atoms: _126  and  _129
REMARK   57  A    between atoms: _129  and  _130
REMARK   58  A    between atoms: _130  and  _131
REMARK   59  A    between atoms: _134  and  _136
REMARK   60  A    between atoms: _136  and  _137
REMARK   61  A    between atoms: _136  and  _139
REMARK   62  A    between atoms: _139  and  _140
REMARK   63  A    between atoms: _145  and  _146
REMARK   64  A    between atoms: _148  and  _150
REMARK   65  A    between atoms: _150  and  _151
REMARK   66  A    between atoms: _150  and  _153
REMARK   67  A    between atoms: _153  and  _154
REMARK   68  A    between atoms: _154  and  _155
REMARK   69  A    between atoms: _155  and  _156
REMARK   70  A    between atoms: _156  and  _157
REMARK   71  A    between atoms: _161  and  _163
REMARK   72  A    between atoms: _163  and  _164
REMARK   73  A    between atoms: _163  and  _166
REMARK   74  A    between atoms: _166  and  _167
REMARK   75  A    between atoms: _170  and  _172
REMARK   76  A    between atoms: _172  and  _173
REMARK   77  A    between atoms: _172  and  _175
REMARK   78  A    between atoms: _175  and  _176
REMARK   79  A    between atoms: _181  and  _183
REMARK   80  A    between atoms: _183  and  _184
REMARK   81  A    between atoms: _183  and  _186
REMARK   82  A    between atoms: _186  and  _187
REMARK   83  A    between atoms: _190  and  _192
REMARK   84  A    between atoms: _192  and  _193
REMARK   85  A    between atoms: _192  and  _195
REMARK   86  A    between atoms: _195  and  _196
REMARK   87  A    between atoms: _202  and  _204
REMARK   88  A    between atoms: _204  and  _205
REMARK   89  A    between atoms: _207  and  _209
REMARK   90  A    between atoms: _209  and  _210
REMARK   91  A    between atoms: _209  and  _212
REMARK   92  A    between atoms: _212  and  _213
REMARK   93  A    between atoms: _218  and  _219
REMARK   94  A    between atoms: _221  and  _223
REMARK   95  A    between atoms: _223  and  _224
REMARK   96  A    between atoms: _223  and  _226
REMARK   97  A    between atoms: _226  and  _227
REMARK   98  A    between atoms: _227  and  _228
REMARK   99  A    between atoms: _228  and  _229
REMARK  100  A    between atoms: _238  and  _240
REMARK  101  A    between atoms: _240  and  _241
REMARK  102  A    between atoms: _243  and  _245
REMARK  103  A    between atoms: _245  and  _246
REMARK  104  A    between atoms: _248  and  _250
REMARK  105  A    between atoms: _250  and  _251
REMARK  106  A    between atoms: _250  and  _253
REMARK  107  A    between atoms: _253  and  _254
REMARK  108  A    between atoms: _257  and  _259
REMARK  109  A    between atoms: _259  and  _260
REMARK  110  A    between atoms: _259  and  _262
REMARK  111  A    between atoms: _262  and  _263
REMARK  112  A    between atoms: _266  and  _268
REMARK  113  A    between atoms: _268  and  _269
REMARK  114  A    between atoms: _268  and  _271
REMARK  115  A    between atoms: _271  and  _272
REMARK  116  A    between atoms: _275  and  _277
REMARK  117  A    between atoms: _277  and  _278
REMARK  118  A    between atoms: _277  and  _280
REMARK  119  A    between atoms: _280  and  _281
REMARK  120  A    between atoms: _286  and  _287
REMARK  121  A    between atoms: _289  and  _291
REMARK  122  A    between atoms: _291  and  _292
REMARK  123  A    between atoms: _291  and  _294
REMARK  124  A    between atoms: _294  and  _295
REMARK  125  A    between atoms: _297  and  _299
REMARK  126  A    between atoms: _299  and  _300
REMARK  127  A    between atoms: _299  and  _302
REMARK  128  A    between atoms: _306  and  _307
REMARK  129  A    between atoms: _312  and  _314
REMARK  130  A    between atoms: _314  and  _315
REMARK  131  A    between atoms: _318  and  _320
REMARK  132  A    between atoms: _320  and  _321
REMARK  133  A    between atoms: _324  and  _326
REMARK  134  A    between atoms: _326  and  _327
REMARK  135  A    between atoms: _326  and  _329
REMARK  136  A    between atoms: _329  and  _330
REMARK  137  A    between atoms: _330  and  _331
REMARK  138  A    between atoms: _334  and  _336
REMARK  139  A    between atoms: _336  and  _337
REMARK  140  A    between atoms: _336  and  _339
REMARK  141  A    between atoms: _339  and  _340
REMARK  142  A    between atoms: _346  and  _347
REMARK  143  A    between atoms: _352  and  _354
REMARK  144  A    between atoms: _354  and  _355
REMARK  145  A    between atoms: _354  and  _357
REMARK  146  A    between atoms: _360  and  _362
REMARK  147  A    between atoms: _362  and  _363
REMARK  148  A    between atoms: _362  and  _365
REMARK  149  A    between atoms: _365  and  _366
REMARK  150  A    between atoms: _368  and  _370
REMARK  151  A    between atoms: _370  and  _371
REMARK  152  A    between atoms: _370  and  _373
REMARK  153  A    between atoms: _376  and  _378
REMARK  154  A    between atoms: _378  and  _379
REMARK  155  A    between atoms: _378  and  _381
REMARK  156  A    between atoms: _384  and  _386
REMARK  157  A    between atoms: _386  and  _387
REMARK  158  A    between atoms: _386  and  _389
REMARK  159  A    between atoms: _389  and  _390
REMARK  160  A    between atoms: _393  and  _395
REMARK  161  A    between atoms: _395  and  _396
REMARK  162  A    between atoms: _395  and  _398
REMARK  163  A    between atoms: _398  and  _399
REMARK  164  A    between atoms: _399  and  _400
REMARK  165  A    between atoms: _405  and  _407
REMARK  166  A    between atoms: _407  and  _408
REMARK  167  A    between atoms: _412  and  _413
REMARK  168  A    between atoms: _418  and  _420
REMARK  169  A    between atoms: _420  and  _421
REMARK  170  A    between atoms: _420  and  _423
REMARK  171  A    between atoms: _423  and  _424
REMARK  172  A    between atoms: _427  and  _429
REMARK  173  A    between atoms: _429  and  _430
REMARK  174  A    between atoms: _429  and  _432
REMARK  175  A    between atoms: _432  and  _433
REMARK  176  A    between atoms: _436  and  _438
REMARK  177  A    between atoms: _438  and  _439
REMARK  178  A    between atoms: _438  and  _441
REMARK  179  A    between atoms: _441  and  _442
REMARK  180  A    between atoms: _445  and  _447
REMARK  181  A    between atoms: _447  and  _448
REMARK  182  A    between atoms: _447  and  _450
REMARK  183  A    between atoms: _450  and  _451
REMARK  184  A    between atoms: _451  and  _452
REMARK  185  A    between atoms: _452  and  _453
REMARK  186  A    between atoms: _463  and  _464
REMARK  187  A    between atoms: _469  and  _471
REMARK  188  A    between atoms: _471  and  _472
REMARK  189  A    between atoms: _471  and  _474
REMARK  190  A    between atoms: _474  and  _475
REMARK  191  A    between atoms: _478  and  _480
REMARK  192  A    between atoms: _480  and  _481
REMARK  193  A    between atoms: _480  and  _483
REMARK  194  A    between atoms: _483  and  _484
REMARK  195  A    between atoms: _487  and  _489
REMARK  196  A    between atoms: _489  and  _490
REMARK  197  A    between atoms: _489  and  _492
REMARK  198  A    between atoms: _492  and  _493
REMARK  199  A    between atoms: _497  and  _498
REMARK  200  A    between atoms: _503  and  _505
REMARK  201  A    between atoms: _505  and  _506
REMARK  202  A    between atoms: _505  and  _508
REMARK  203  A    between atoms: _508  and  _509
REMARK  204  A    between atoms: _512  and  _514
REMARK  205  A    between atoms: _514  and  _515
REMARK  206  A    between atoms: _514  and  _517
REMARK  207  A    between atoms: _517  and  _518
REMARK  208  A    between atoms: _518  and  _519
REMARK  209  A    between atoms: _519  and  _520
REMARK  210  A    between atoms: _529  and  _531
REMARK  211  A    between atoms: _531  and  _532
REMARK  212  A    between atoms: _531  and  _534
REMARK  213  A    between atoms: _537  and  _539
REMARK  214  A    between atoms: _539  and  _540
REMARK  215  A    between atoms: _539  and  _542
REMARK  216  A    between atoms: _542  and  _543
REMARK  217  A    between atoms: _546  and  _548
REMARK  218  A    between atoms: _548  and  _549
REMARK  219  A    between atoms: _548  and  _551
REMARK  220  A    between atoms: _551  and  _552
REMARK  221  A    between atoms: _552  and  _553
REMARK  222  A    between atoms: _558  and  _560
REMARK  223  A    between atoms: _560  and  _561
REMARK  224  A    between atoms: _563  and  _565
REMARK  225  A    between atoms: _565  and  _566
REMARK  226  A    between atoms: _565  and  _568
REMARK  227  A    between atoms: _568  and  _569
REMARK  228  A    between atoms: _572  and  _574
REMARK  229  A    between atoms: _574  and  _575
REMARK  230  A    between atoms: _574  and  _577
REMARK  231  A    between atoms: _577  and  _578
REMARK  232  A    between atoms: _580  and  _582
REMARK  233  A    between atoms: _582  and  _583
REMARK  234  A    between atoms: _582  and  _585
REMARK  235  A    between atoms: _585  and  _586
REMARK  236  A    between atoms: _589  and  _591
REMARK  237  A    between atoms: _591  and  _592
REMARK  238  A    between atoms: _591  and  _594
REMARK  239  A    between atoms: _594  and  _595
REMARK  240  A    between atoms: _595  and  _596
REMARK  241  A    between atoms: _599  and  _601
REMARK  242  A    between atoms: _601  and  _602
REMARK  243  A    between atoms: _601  and  _604
REMARK  244  A    between atoms: _604  and  _605
REMARK  245  A    between atoms: _610  and  _612
REMARK  246  A    between atoms: _612  and  _613
REMARK  247  A    between atoms: _612  and  _615
REMARK  248  A    between atoms: _615  and  _616
REMARK  249  A    between atoms: _619  and  _621
REMARK  250  A    between atoms: _621  and  _622
REMARK  251  A    between atoms: _625  and  _627
REMARK  252  A    between atoms: _627  and  _628
REMARK  253  A    between atoms: _627  and  _630
REMARK  254  A    between atoms: _630  and  _631
REMARK  255  A    between atoms: _637  and  _639
REMARK  256  A    between atoms: _639  and  _640
REMARK  257  A    between atoms: _642  and  _644
REMARK  258  A    between atoms: _644  and  _645
REMARK  259  A    between atoms: _644  and  _647
REMARK  260  A    between atoms: _647  and  _648
REMARK  261  A    between atoms: _650  and  _652
REMARK  262  A    between atoms: _652  and  _653
REMARK                            x       y       z     vdW  Elec       q    Type
REMARK                         _______ _______ _______ _____ _____    ______ ____
ROOT
ATOM      1  C   LEU A   1      -4.895  -3.829  56.391  0.00  0.00    +0.238 C 
ATOM      2  O   LEU A   1      -5.259  -4.217  57.510  0.00  0.00    -0.274 OA
ATOM      3  N   LEU A   2      -4.107  -4.537  55.583  0.00  0.00    -0.298 N 
ATOM      4  H   LEU A   2      -3.964  -4.192  54.612  0.00  0.00    +0.150 HD
ENDROOT
BRANCH   1   5
ATOM      5  CA  LEU A   1      -5.346  -2.477  55.841  0.00  0.00    +0.145 C 
BRANCH   5   6
ATOM      6  N   LEU A   1      -6.788  -2.354  55.825  0.00  0.00    -0.238 NA
ATOM      7  H   LEU A   1      -7.327  -2.741  56.625  0.00  0.00    +0.142 HD
ENDBRANCH   5   6
BRANCH   5   8
ATOM      8  CB  LEU A   1      -4.738  -1.339  56.677  0.00  0.00    +0.026 C 
BRANCH   8   9
ATOM      9  CG  LEU A   1      -3.222  -1.275  56.843  0.00  0.00    +0.002 C 
ATOM     10  CD2 LEU A   1      -2.855  -0.349  57.980  0.00  0.00    +0.000 C 
ATOM     11  CD1 LEU A   1      -2.572  -0.802  55.558  0.00  0.00    +0.000 C 
ENDBRANCH   8   9
ENDBRANCH   5   8
ENDBRANCH   1   5
BRANCH   3  12
ATOM     12  CA  LEU A   2      -3.433  -5.768  55.981  0.00  0.00    +0.137 C 
BRANCH  12  13
ATOM     13  C   LEU A   2      -2.545  -5.497  57.199  0.00  0.00    +0.227 C 
ATOM     14  O   LEU A   2      -2.123  -4.361  57.405  0.00  0.00    -0.286 OA
ENDBRANCH  12  13
BRANCH  12  15
ATOM     15  CB  LEU A   2      -2.583  -6.291  54.804  0.00  0.00    +0.028 C 
BRANCH  15  16
ATOM     16  CG  LEU A   2      -3.099  -7.392  53.860  0.00  0.00    +0.002 C 
ATOM     17  CD2 LEU A   2      -4.618  -7.528  53.859  0.00  0.00    +0.000 C 
ATOM     18  CD1 LEU A   2      -2.575  -7.210  52.440  0.00  0.00    +0.000 C 
ENDBRANCH  15  16
ENDBRANCH  12  15
ENDBRANCH   3  12
TORSDOF 8
REMARK  Name = ../refined-set-2016/2gvj/2gvj_pocket.pdb
REMARK  262 active torsions:
REMARK  status: ('A' for Active; 'I' for Inactive)
REMARK    1  A    between atoms: _1  and  _3
REMARK    2  A    between atoms: _3  and  _4
REMARK    3  A    between atoms: _3  and  _6
REMARK    4  A    between atoms: _6  and  _7
REMARK    5  A    between atoms: _10  and  _12
REMARK    6  A    between atoms: _12  and  _13
REMARK    7  A    between atoms: _12  and  _15
REMARK    8  A    between atoms: _15  and  _16
REMARK    9  A    between atoms: _19  and  _21
REMARK   10  A    between atoms: _21  and  _22
REMARK   11  A    between atoms: _21  and  _24
REMARK   12  A    between atoms: _24  and  _25
REMARK   13  A    between atoms: _27  and  _29
REMARK   14  A    between atoms: _29  and  _30
REMARK   15  A    between atoms: _29  and  _32
REMARK   16  A    between atoms: _32  and  _33
REMARK   17  A    between atoms: _38  and  _39
REMARK   18  A    between atoms: _41  and  _43
REMARK   19  A    between atoms: _43  and  _44
REMARK   20  A    between atoms: _43  and  _46
REMARK   21  A    between atoms: _46  and  _47
REMARK   22  A    between atoms: _47  and  _48
REMARK   23  A    between atoms: _48  and  _49
REMARK   24  A    between atoms: _49  and  _50
REMARK   25  A    between atoms: _54  and  _56
REMARK   26  A    between atoms: _56  and  _57
REMARK   27  A    between atoms: _56  and  _59
REMARK   28  A    between atoms: _59  and  _60
REMARK   29  A    between atoms: _65  and  _67
REMARK   30  A    between atoms: _67  and  _68
REMARK   31  A    between atoms: _67  and  _70
REMARK   32  A    between atoms: _70  and  _71
REMARK   33  A    between atoms: _71  and  _72
REMARK   34  A    between atoms: _75  and  _77
REMARK   35  A    between atoms: _77  and  _78
REMARK   36  A    between atoms: _77  and  _80
REMARK   37  A    between atoms: _80  and  _81
REMARK   38  A    between atoms: _84  and  _86
REMARK   39  A    between atoms: _86  and  _87
REMARK   40  A    between atoms: _86  and  _89
REMARK   41  A    between atoms: _89  and  _90
REMARK   42  A    between atoms: _90  and  _91
REMARK   43  A    between atoms: _91  and  _92
REMARK   44  A    between atoms: _101  and  _103
REMARK   45  A    between atoms: _103  and  _104
REMARK   46  A    between atoms: _103  and  _106
REMARK   47  A    between atoms: _106  and  _107
REMARK   48  A    between atoms: _110  and  _112
REMARK   49  A    between atoms: _112  and  _113
REMARK   50  A    between atoms: _112  and  _115
REMARK   51  A    between atoms: _115  and  _116
REMARK   52  A    between atoms: _119  and  _121
REMARK   53  A    between atoms: _121  and  _122
REMARK   54  A    between atoms: _124  and  _126
REMARK   55  A    between atoms: _126  and  _127
REMARK   56  A    between atoms: _126  and  _129
REMARK   57  A    between atoms: _129  and  _130
REMARK   58  A    between atoms: _130  and  _131
REMARK   59  A    between atoms: _134  and  _136
REMARK   60  A    between atoms: _136  and  _137
REMARK   61  A    between atoms: _136  and  _139
REMARK   62  A    between atoms: _139  and  _140
REMARK   63  A    between atoms: _145  and  _146
REMARK   64  A    between atoms: _148  and  _150
REMARK   65  A    between atoms: _150  and  _151
REMARK   66  A    between atoms: _150  and  _153
REMARK   67  A    between atoms: _153  and  _154
REMARK   68  A    between atoms: _154  and  _155
REMARK   69  A    between atoms: _155  and  _156
REMARK   70  A    between atoms: _156  and  _157
REMARK   71  A    between atoms: _161  and  _163
REMARK   72  A    between atoms: _163  and  _164
REMARK   73  A    between atoms: _163  and  _166
REMARK   74  A    between atoms: _166  and  _167
REMARK   75  A    between atoms: _170  and  _172
REMARK   76  A    between atoms: _172  and  _173
REMARK   77  A    between atoms: _172  and  _175
REMARK   78  A    between atoms: _175  and  _176
REMARK   79  A    between atoms: _181  and  _183
REMARK   80  A    between atoms: _183  and  _184
REMARK   81  A    between atoms: _183  and  _186
REMARK   82  A    between atoms: _186  and  _187
REMARK   83  A    between atoms: _190  and  _192
REMARK   84  A    between atoms: _192  and  _193
REMARK   85  A    between atoms: _192  and  _195
REMARK   86  A    between atoms: _195  and  _196
REMARK   87  A    between atoms: _202  and  _204
REMARK   88  A    between atoms: _204  and  _205
REMARK   89  A    between atoms: _207  and  _209
REMARK   90  A    between atoms: _209  and  _210
REMARK   91  A    between atoms: _209  and  _212
REMARK   92  A    between atoms: _212  and  _213
REMARK   93  A    between atoms: _218  and  _219
REMARK   94  A    between atoms: _221  and  _223
REMARK   95  A    between atoms: _223  and  _224
REMARK   96  A    between atoms: _223  and  _226
REMARK   97  A    between atoms: _226  and  _227
REMARK   98  A    between atoms: _227  and  _228
REMARK   99  A    between atoms: _228  and  _229
REMARK  100  A    between atoms: _238  and  _240
REMARK  101  A    between atoms: _240  and  _241
REMARK  102  A    between atoms: _243  and  _245
REMARK  103  A    between atoms: _245  and  _246
REMARK  104  A    between atoms: _248  and  _250
REMARK  105  A    between atoms: _250  and  _251
REMARK  106  A    between atoms: _250  and  _253
REMARK  107  A    between atoms: _253  and  _254
REMARK  108  A    between atoms: _257  and  _259
REMARK  109  A    between atoms: _259  and  _260
REMARK  110  A    between atoms: _259  and  _262
REMARK  111  A    between atoms: _262  and  _263
REMARK  112  A    between atoms: _266  and  _268
REMARK  113  A    between atoms: _268  and  _269
REMARK  114  A    between atoms: _268  and  _271
REMARK  115  A    between atoms: _271  and  _272
REMARK  116  A    between atoms: _275  and  _277
REMARK  117  A    between atoms: _277  and  _278
REMARK  118  A    between atoms: _277  and  _280
REMARK  119  A    between atoms: _280  and  _281
REMARK  120  A    between atoms: _286  and  _287
REMARK  121  A    between atoms: _289  and  _291
REMARK  122  A    between atoms: _291  and  _292
REMARK  123  A    between atoms: _291  and  _294
REMARK  124  A    between atoms: _294  and  _295
REMARK  125  A    between atoms: _297  and  _299
REMARK  126  A    between atoms: _299  and  _300
REMARK  127  A    between atoms: _299  and  _302
REMARK  128  A    between atoms: _306  and  _307
REMARK  129  A    between atoms: _312  and  _314
REMARK  130  A    between atoms: _314  and  _315
REMARK  131  A    between atoms: _318  and  _320
REMARK  132  A    between atoms: _320  and  _321
REMARK  133  A    between atoms: _324  and  _326
REMARK  134  A    between atoms: _326  and  _327
REMARK  135  A    between atoms: _326  and  _329
REMARK  136  A    between atoms: _329  and  _330
REMARK  137  A    between atoms: _330  and  _331
REMARK  138  A    between atoms: _334  and  _336
REMARK  139  A    between atoms: _336  and  _337
REMARK  140  A    between atoms: _336  and  _339
REMARK  141  A    between atoms: _339  and  _340
REMARK  142  A    between atoms: _346  and  _347
REMARK  143  A    between atoms: _352  and  _354
REMARK  144  A    between atoms: _354  and  _355
REMARK  145  A    between atoms: _354  and  _357
REMARK  146  A    between atoms: _360  and  _362
REMARK  147  A    between atoms: _362  and  _363
REMARK  148  A    between atoms: _362  and  _365
REMARK  149  A    between atoms: _365  and  _366
REMARK  150  A    between atoms: _368  and  _370
REMARK  151  A    between atoms: _370  and  _371
REMARK  152  A    between atoms: _370  and  _373
REMARK  153  A    between atoms: _376  and  _378
REMARK  154  A    between atoms: _378  and  _379
REMARK  155  A    between atoms: _378  and  _381
REMARK  156  A    between atoms: _384  and  _386
REMARK  157  A    between atoms: _386  and  _387
REMARK  158  A    between atoms: _386  and  _389
REMARK  159  A    between atoms: _389  and  _390
REMARK  160  A    between atoms: _393  and  _395
REMARK  161  A    between atoms: _395  and  _396
REMARK  162  A    between atoms: _395  and  _398
REMARK  163  A    between atoms: _398  and  _399
REMARK  164  A    between atoms: _399  and  _400
REMARK  165  A    between atoms: _405  and  _407
REMARK  166  A    between atoms: _407  and  _408
REMARK  167  A    between atoms: _412  and  _413
REMARK  168  A    between atoms: _418  and  _420
REMARK  169  A    between atoms: _420  and  _421
REMARK  170  A    between atoms: _420  and  _423
REMARK  171  A    between atoms: _423  and  _424
REMARK  172  A    between atoms: _427  and  _429
REMARK  173  A    between atoms: _429  and  _430
REMARK  174  A    between atoms: _429  and  _432
REMARK  175  A    between atoms: _432  and  _433
REMARK  176  A    between atoms: _436  and  _438
REMARK  177  A    between atoms: _438  and  _439
REMARK  178  A    between atoms: _438  and  _441
REMARK  179  A    between atoms: _441  and  _442
REMARK  180  A    between atoms: _445  and  _447
REMARK  181  A    between atoms: _447  and  _448
REMARK  182  A    between atoms: _447  and  _450
REMARK  183  A    between atoms: _450  and  _451
REMARK  184  A    between atoms: _451  and  _452
REMARK  185  A    between atoms: _452  and  _453
REMARK  186  A    between atoms: _463  and  _464
REMARK  187  A    between atoms: _469  and  _471
REMARK  188  A    between atoms: _471  and  _472
REMARK  189  A    between atoms: _471  and  _474
REMARK  190  A    between atoms: _474  and  _475
REMARK  191  A    between atoms: _478  and  _480
REMARK  192  A    between atoms: _480  and  _481
REMARK  193  A    between atoms: _480  and  _483
REMARK  194  A    between atoms: _483  and  _484
REMARK  195  A    between atoms: _487  and  _489
REMARK  196  A    between atoms: _489  and  _490
REMARK  197  A    between atoms: _489  and  _492
REMARK  198  A    between atoms: _492  and  _493
REMARK  199  A    between atoms: _497  and  _498
REMARK  200  A    between atoms: _503  and  _505
REMARK  201  A    between atoms: _505  and  _506
REMARK  202  A    between atoms: _505  and  _508
REMARK  203  A    between atoms: _508  and  _509
REMARK  204  A    between atoms: _512  and  _514
REMARK  205  A    between atoms: _514  and  _515
REMARK  206  A    between atoms: _514  and  _517
REMARK  207  A    between atoms: _517  and  _518
REMARK  208  A    between atoms: _518  and  _519
REMARK  209  A    between atoms: _519  and  _520
REMARK  210  A    between atoms: _529  and  _531
REMARK  211  A    between atoms: _531  and  _532
REMARK  212  A    between atoms: _531  and  _534
REMARK  213  A    between atoms: _537  and  _539
REMARK  214  A    between atoms: _539  and  _540
REMARK  215  A    between atoms: _539  and  _542
REMARK  216  A    between atoms: _542  and  _543
REMARK  217  A    between atoms: _546  and  _548
REMARK  218  A    between atoms: _548  and  _549
REMARK  219  A    between atoms: _548  and  _551
REMARK  220  A    between atoms: _551  and  _552
REMARK  221  A    between atoms: _552  and  _553
REMARK  222  A    between atoms: _558  and  _560
REMARK  223  A    between atoms: _560  and  _561
REMARK  224  A    between atoms: _563  and  _565
REMARK  225  A    between atoms: _565  and  _566
REMARK  226  A    between atoms: _565  and  _568
REMARK  227  A    between atoms: _568  and  _569
REMARK  228  A    between atoms: _572  and  _574
REMARK  229  A    between atoms: _574  and  _575
REMARK  230  A    between atoms: _574  and  _577
REMARK  231  A    between atoms: _577  and  _578
REMARK  232  A    between atoms: _580  and  _582
REMARK  233  A    between atoms: _582  and  _583
REMARK  234  A    between atoms: _582  and  _585
REMARK  235  A    between atoms: _585  and  _586
REMARK  236  A    between atoms: _589  and  _591
REMARK  237  A    between atoms: _591  and  _592
REMARK  238  A    between atoms: _591  and  _594
REMARK  239  A    between atoms: _594  and  _595
REMARK  240  A    between atoms: _595  and  _596
REMARK  241  A    between atoms: _599  and  _601
REMARK  242  A    between atoms: _601  and  _602
REMARK  243  A    between atoms: _601  and  _604
REMARK  244  A    between atoms: _604  and  _605
REMARK  245  A    between atoms: _610  and  _612
REMARK  246  A    between atoms: _612  and  _613
REMARK  247  A    between atoms: _612  and  _615
REMARK  248  A    between atoms: _615  and  _616
REMARK  249  A    between atoms: _619  and  _621
REMARK  250  A    between atoms: _621  and  _622
REMARK  251  A    between atoms: _625  and  _627
REMARK  252  A    between atoms: _627  and  _628
REMARK  253  A    between atoms: _627  and  _630
REMARK  254  A    between atoms: _630  and  _631
REMARK  255  A    between atoms: _637  and  _639
REMARK  256  A    between atoms: _639  and  _640
REMARK  257  A    between atoms: _642  and  _644
REMARK  258  A    between atoms: _644  and  _645
REMARK  259  A    between atoms: _644  and  _647
REMARK  260  A    between atoms: _647  and  _648
REMARK  261  A    between atoms: _650  and  _652
REMARK  262  A    between atoms: _652  and  _653
REMARK                            x       y       z     vdW  Elec       q    Type
REMARK                         _______ _______ _______ _____ _____    ______ ____
ROOT
ATOM      1  N   PRO A   1       0.945  -5.446  59.350  0.00  0.00    -0.212 NA
ATOM      2  CD  PRO A   1       0.737  -5.143  60.778  0.00  0.00    +0.089 C 
ATOM      3  CG  PRO A   1       2.118  -4.839  61.259  0.00  0.00    +0.021 C 
ATOM      4  CB  PRO A   1       2.830  -4.225  60.098  0.00  0.00    +0.027 C 
ATOM      5  CA  PRO A   1       2.234  -4.904  58.858  0.00  0.00    +0.137 C 
ENDROOT
BRANCH   5   6
ATOM      6  C   PRO A   1       3.252  -5.881  58.237  0.00  0.00    +0.224 C 
ATOM      7  O   PRO A   1       4.146  -5.443  57.530  0.00  0.00    -0.287 OA
ENDBRANCH   5   6
TORSDOF 1
REMARK  Name = ../refined-set-2016/2gvj/2gvj_pocket.pdb
REMARK  262 active torsions:
REMARK  status: ('A' for Active; 'I' for Inactive)
REMARK    1  A    between atoms: _1  and  _3
REMARK    2  A    between atoms: _3  and  _4
REMARK    3  A    between atoms: _3  and  _6
REMARK    4  A    between atoms: _6  and  _7
REMARK    5  A    between atoms: _10  and  _12
REMARK    6  A    between atoms: _12  and  _13
REMARK    7  A    between atoms: _12  and  _15
REMARK    8  A    between atoms: _15  and  _16
REMARK    9  A    between atoms: _19  and  _21
REMARK   10  A    between atoms: _21  and  _22
REMARK   11  A    between atoms: _21  and  _24
REMARK   12  A    between atoms: _24  and  _25
REMARK   13  A    between atoms: _27  and  _29
REMARK   14  A    between atoms: _29  and  _30
REMARK   15  A    between atoms: _29  and  _32
REMARK   16  A    between atoms: _32  and  _33
REMARK   17  A    between atoms: _38  and  _39
REMARK   18  A    between atoms: _41  and  _43
REMARK   19  A    between atoms: _43  and  _44
REMARK   20  A    between atoms: _43  and  _46
REMARK   21  A    between atoms: _46  and  _47
REMARK   22  A    between atoms: _47  and  _48
REMARK   23  A    between atoms: _48  and  _49
REMARK   24  A    between atoms: _49  and  _50
REMARK   25  A    between atoms: _54  and  _56
REMARK   26  A    between atoms: _56  and  _57
REMARK   27  A    between atoms: _56  and  _59
REMARK   28  A    between atoms: _59  and  _60
REMARK   29  A    between atoms: _65  and  _67
REMARK   30  A    between atoms: _67  and  _68
REMARK   31  A    between atoms: _67  and  _70
REMARK   32  A    between atoms: _70  and  _71
REMARK   33  A    between atoms: _71  and  _72
REMARK   34  A    between atoms: _75  and  _77
REMARK   35  A    between atoms: _77  and  _78
REMARK   36  A    between atoms: _77  and  _80
REMARK   37  A    between atoms: _80  and  _81
REMARK   38  A    between atoms: _84  and  _86
REMARK   39  A    between atoms: _86  and  _87
REMARK   40  A    between atoms: _86  and  _89
REMARK   41  A    between atoms: _89  and  _90
REMARK   42  A    between atoms: _90  and  _91
REMARK   43  A    between atoms: _91  and  _92
REMARK   44  A    between atoms: _101  and  _103
REMARK   45  A    between atoms: _103  and  _104
REMARK   46  A    between atoms: _103  and  _106
REMARK   47  A    between atoms: _106  and  _107
REMARK   48  A    between atoms: _110  and  _112
REMARK   49  A    between atoms: _112  and  _113
REMARK   50  A    between atoms: _112  and  _115
REMARK   51  A    between atoms: _115  and  _116
REMARK   52  A    between atoms: _119  and  _121
REMARK   53  A    between atoms: _121  and  _122
REMARK   54  A    between atoms: _124  and  _126
REMARK   55  A    between atoms: _126  and  _127
REMARK   56  A    between atoms: _126  and  _129
REMARK   57  A    between atoms: _129  and  _130
REMARK   58  A    between atoms: _130  and  _131
REMARK   59  A    between atoms: _134  and  _136
REMARK   60  A    between atoms: _136  and  _137
REMARK   61  A    between atoms: _136  and  _139
REMARK   62  A    between atoms: _139  and  _140
REMARK   63  A    between atoms: _145  and  _146
REMARK   64  A    between atoms: _148  and  _150
REMARK   65  A    between atoms: _150  and  _151
REMARK   66  A    between atoms: _150  and  _153
REMARK   67  A    between atoms: _153  and  _154
REMARK   68  A    between atoms: _154  and  _155
REMARK   69  A    between atoms: _155  and  _156
REMARK   70  A    between atoms: _156  and  _157
REMARK   71  A    between atoms: _161  and  _163
REMARK   72  A    between atoms: _163  and  _164
REMARK   73  A    between atoms: _163  and  _166
REMARK   74  A    between atoms: _166  and  _167
REMARK   75  A    between atoms: _170  and  _172
REMARK   76  A    between atoms: _172  and  _173
REMARK   77  A    between atoms: _172  and  _175
REMARK   78  A    between atoms: _175  and  _176
REMARK   79  A    between atoms: _181  and  _183
REMARK   80  A    between atoms: _183  and  _184
REMARK   81  A    between atoms: _183  and  _186
REMARK   82  A    between atoms: _186  and  _187
REMARK   83  A    between atoms: _190  and  _192
REMARK   84  A    between atoms: _192  and  _193
REMARK   85  A    between atoms: _192  and  _195
REMARK   86  A    between atoms: _195  and  _196
REMARK   87  A    between atoms: _202  and  _204
REMARK   88  A    between atoms: _204  and  _205
REMARK   89  A    between atoms: _207  and  _209
REMARK   90  A    between atoms: _209  and  _210
REMARK   91  A    between atoms: _209  and  _212
REMARK   92  A    between atoms: _212  and  _213
REMARK   93  A    between atoms: _218  and  _219
REMARK   94  A    between atoms: _221  and  _223
REMARK   95  A    between atoms: _223  and  _224
REMARK   96  A    between atoms: _223  and  _226
REMARK   97  A    between atoms: _226  and  _227
REMARK   98  A    between atoms: _227  and  _228
REMARK   99  A    between atoms: _228  and  _229
REMARK  100  A    between atoms: _238  and  _240
REMARK  101  A    between atoms: _240  and  _241
REMARK  102  A    between atoms: _243  and  _245
REMARK  103  A    between atoms: _245  and  _246
REMARK  104  A    between atoms: _248  and  _250
REMARK  105  A    between atoms: _250  and  _251
REMARK  106  A    between atoms: _250  and  _253
REMARK  107  A    between atoms: _253  and  _254
REMARK  108  A    between atoms: _257  and  _259
REMARK  109  A    between atoms: _259  and  _260
REMARK  110  A    between atoms: _259  and  _262
REMARK  111  A    between atoms: _262  and  _263
REMARK  112  A    between atoms: _266  and  _268
REMARK  113  A    between atoms: _268  and  _269
REMARK  114  A    between atoms: _268  and  _271
REMARK  115  A    between atoms: _271  and  _272
REMARK  116  A    between atoms: _275  and  _277
REMARK  117  A    between atoms: _277  and  _278
REMARK  118  A    between atoms: _277  and  _280
REMARK  119  A    between atoms: _280  and  _281
REMARK  120  A    between atoms: _286  and  _287
REMARK  121  A    between atoms: _289  and  _291
REMARK  122  A    between atoms: _291  and  _292
REMARK  123  A    between atoms: _291  and  _294
REMARK  124  A    between atoms: _294  and  _295
REMARK  125  A    between atoms: _297  and  _299
REMARK  126  A    between atoms: _299  and  _300
REMARK  127  A    between atoms: _299  and  _302
REMARK  128  A    between atoms: _306  and  _307
REMARK  129  A    between atoms: _312  and  _314
REMARK  130  A    between atoms: _314  and  _315
REMARK  131  A    between atoms: _318  and  _320
REMARK  132  A    between atoms: _320  and  _321
REMARK  133  A    between atoms: _324  and  _326
REMARK  134  A    between atoms: _326  and  _327
REMARK  135  A    between atoms: _326  and  _329
REMARK  136  A    between atoms: _329  and  _330
REMARK  137  A    between atoms: _330  and  _331
REMARK  138  A    between atoms: _334  and  _336
REMARK  139  A    between atoms: _336  and  _337
REMARK  140  A    between atoms: _336  and  _339
REMARK  141  A    between atoms: _339  and  _340
REMARK  142  A    between atoms: _346  and  _347
REMARK  143  A    between atoms: _352  and  _354
REMARK  144  A    between atoms: _354  and  _355
REMARK  145  A    between atoms: _354  and  _357
REMARK  146  A    between atoms: _360  and  _362
REMARK  147  A    between atoms: _362  and  _363
REMARK  148  A    between atoms: _362  and  _365
REMARK  149  A    between atoms: _365  and  _366
REMARK  150  A    between atoms: _368  and  _370
REMARK  151  A    between atoms: _370  and  _371
REMARK  152  A    between atoms: _370  and  _373
REMARK  153  A    between atoms: _376  and  _378
REMARK  154  A    between atoms: _378  and  _379
REMARK  155  A    between atoms: _378  and  _381
REMARK  156  A    between atoms: _384  and  _386
REMARK  157  A    between atoms: _386  and  _387
REMARK  158  A    between atoms: _386  and  _389
REMARK  159  A    between atoms: _389  and  _390
REMARK  160  A    between atoms: _393  and  _395
REMARK  161  A    between atoms: _395  and  _396
REMARK  162  A    between atoms: _395  and  _398
REMARK  163  A    between atoms: _398  and  _399
REMARK  164  A    between atoms: _399  and  _400
REMARK  165  A    between atoms: _405  and  _407
REMARK  166  A    between atoms: _407  and  _408
REMARK  167  A    between atoms: _412  and  _413
REMARK  168  A    between atoms: _418  and  _420
REMARK  169  A    between atoms: _420  and  _421
REMARK  170  A    between atoms: _420  and  _423
REMARK  171  A    between atoms: _423  and  _424
REMARK  172  A    between atoms: _427  and  _429
REMARK  173  A    between atoms: _429  and  _430
REMARK  174  A    between atoms: _429  and  _432
REMARK  175  A    between atoms: _432  and  _433
REMARK  176  A    between atoms: _436  and  _438
REMARK  177  A    between atoms: _438  and  _439
REMARK  178  A    between atoms: _438  and  _441
REMARK  179  A    between atoms: _441  and  _442
REMARK  180  A    between atoms: _445  and  _447
REMARK  181  A    between atoms: _447  and  _448
REMARK  182  A    between atoms: _447  and  _450
REMARK  183  A    between atoms: _450  and  _451
REMARK  184  A    between atoms: _451  and  _452
REMARK  185  A    between atoms: _452  and  _453
REMARK  186  A    between atoms: _463  and  _464
REMARK  187  A    between atoms: _469  and  _471
REMARK  188  A    between atoms: _471  and  _472
REMARK  189  A    between atoms: _471  and  _474
REMARK  190  A    between atoms: _474  and  _475
REMARK  191  A    between atoms: _478  and  _480
REMARK  192  A    between atoms: _480  and  _481
REMARK  193  A    between atoms: _480  and  _483
REMARK  194  A    between atoms: _483  and  _484
REMARK  195  A    between atoms: _487  and  _489
REMARK  196  A    between atoms: _489  and  _490
REMARK  197  A    between atoms: _489  and  _492
REMARK  198  A    between atoms: _492  and  _493
REMARK  199  A    between atoms: _497  and  _498
REMARK  200  A    between atoms: _503  and  _505
REMARK  201  A    between atoms: _505  and  _506
REMARK  202  A    between atoms: _505  and  _508
REMARK  203  A    between atoms: _508  and  _509
REMARK  204  A    between atoms: _512  and  _514
REMARK  205  A    between atoms: _514  and  _515
REMARK  206  A    between atoms: _514  and  _517
REMARK  207  A    between atoms: _517  and  _518
REMARK  208  A    between atoms: _518  and  _519
REMARK  209  A    between atoms: _519  and  _520
REMARK  210  A    between atoms: _529  and  _531
REMARK  211  A    between atoms: _531  and  _532
REMARK  212  A    between atoms: _531  and  _534
REMARK  213  A    between atoms: _537  and  _539
REMARK  214  A    between atoms: _539  and  _540
REMARK  215  A    between atoms: _539  and  _542
REMARK  216  A    between atoms: _542  and  _543
REMARK  217  A    between atoms: _546  and  _548
REMARK  218  A    between atoms: _548  and  _549
REMARK  219  A    between atoms: _548  and  _551
REMARK  220  A    between atoms: _551  and  _552
REMARK  221  A    between atoms: _552  and  _553
REMARK  222  A    between atoms: _558  and  _560
REMARK  223  A    between atoms: _560  and  _561
REMARK  224  A    between atoms: _563  and  _565
REMARK  225  A    between atoms: _565  and  _566
REMARK  226  A    between atoms: _565  and  _568
REMARK  227  A    between atoms: _568  and  _569
REMARK  228  A    between atoms: _572  and  _574
REMARK  229  A    between atoms: _574  and  _575
REMARK  230  A    between atoms: _574  and  _577
REMARK  231  A    between atoms: _577  and  _578
REMARK  232  A    between atoms: _580  and  _582
REMARK  233  A    between atoms: _582  and  _583
REMARK  234  A    between atoms: _582  and  _585
REMARK  235  A    between atoms: _585  and  _586
REMARK  236  A    between atoms: _589  and  _591
REMARK  237  A    between atoms: _591  and  _592
REMARK  238  A    between atoms: _591  and  _594
REMARK  239  A    between atoms: _594  and  _595
REMARK  240  A    between atoms: _595  and  _596
REMARK  241  A    between atoms: _599  and  _601
REMARK  242  A    between atoms: _601  and  _602
REMARK  243  A    between atoms: _601  and  _604
REMARK  244  A    between atoms: _604  and  _605
REMARK  245  A    between atoms: _610  and  _612
REMARK  246  A    between atoms: _612  and  _613
REMARK  247  A    between atoms: _612  and  _615
REMARK  248  A    between atoms: _615  and  _616
REMARK  249  A    between atoms: _619  and  _621
REMARK  250  A    between atoms: _621  and  _622
REMARK  251  A    between atoms: _625  and  _627
REMARK  252  A    between atoms: _627  and  _628
REMARK  253  A    between atoms: _627  and  _630
REMARK  254  A    between atoms: _630  and  _631
REMARK  255  A    between atoms: _637  and  _639
REMARK  256  A    between atoms: _639  and  _640
REMARK  257  A    between atoms: _642  and  _644
REMARK  258  A    between atoms: _644  and  _645
REMARK  259  A    between atoms: _644  and  _647
REMARK  260  A    between atoms: _647  and  _648
REMARK  261  A    between atoms: _650  and  _652
REMARK  262  A    between atoms: _652  and  _653
REMARK                            x       y       z     vdW  Elec       q    Type
REMARK                         _______ _______ _______ _____ _____    ______ ____
ROOT
ATOM      1  C   VAL A   3       1.772  -6.623  46.786  0.00  0.00    +0.241 C 
ATOM      2  O   VAL A   3       1.818  -5.394  46.881  0.00  0.00    -0.273 OA
ATOM      3  N   ILE A   4       2.387  -7.300  45.819  0.00  0.00    -0.297 N 
ATOM      4  H   ILE A   4       2.479  -8.333  45.900  0.00  0.00    +0.150 HD
ENDROOT
BRANCH   3   5
ATOM      5  CA  ILE A   4       2.934  -6.624  44.650  0.00  0.00    +0.149 C 
BRANCH   5   6
ATOM      6  C   ILE A   4       2.353  -7.255  43.383  0.00  0.00    +0.241 C 
ATOM      7  O   ILE A   4       2.475  -8.461  43.161  0.00  0.00    -0.273 OA
ATOM      8  N   GLN A   5       1.671  -6.438  42.593  0.00  0.00    -0.297 N 
ATOM      9  H   GLN A   5       1.520  -5.456  42.900  0.00  0.00    +0.150 HD
BRANCH   8  10
ATOM     10  CA  GLN A   5       1.122  -6.864  41.305  0.00  0.00    +0.149 C 
BRANCH  10  11
ATOM     11  C   GLN A   5       2.071  -6.401  40.209  0.00  0.00    +0.241 C 
ATOM     12  O   GLN A   5       2.161  -5.202  39.931  0.00  0.00    -0.273 OA
ATOM     13  N   GLY A   6       2.785  -7.351  39.605  0.00  0.00    -0.295 N 
ATOM     14  H   GLY A   6       2.648  -8.341  39.892  0.00  0.00    +0.150 HD
BRANCH  13  15
ATOM     15  CA  GLY A   6       3.759  -7.046  38.548  0.00  0.00    +0.176 C 
BRANCH  15  16
ATOM     16  C   GLY A   6       3.497  -7.631  37.163  0.00  0.00    +0.243 C 
ATOM     17  N   ASP A   7       2.238  -7.899  36.841  0.00  0.00    -0.297 N 
ATOM     18  H   ASP A   7       1.492  -7.751  37.550  0.00  0.00    +0.150 HD
ATOM     19  O   GLY A   6       4.431  -7.829  36.385  0.00  0.00    -0.273 OA
BRANCH  17  20
ATOM     20  CA  ASP A   7       1.870  -8.400  35.509  0.00  0.00    +0.148 C 
BRANCH  20  21
ATOM     21  C   ASP A   7       0.803  -7.521  34.853  0.00  0.00    +0.227 C 
ATOM     22  O   ASP A   7      -0.205  -7.194  35.482  0.00  0.00    -0.286 OA
ENDBRANCH  20  21
BRANCH  20  23
ATOM     23  CB  ASP A   7       1.373  -9.841  35.608  0.00  0.00    +0.142 C 
BRANCH  23  24
ATOM     24  CG  ASP A   7       0.826 -10.367  34.291  0.00  0.00    +0.367 C 
ATOM     25  OD2 ASP A   7      -0.395 -10.533  34.089  0.00  0.00    -0.246 OA
ATOM     26  OD1 ASP A   7       1.622 -10.666  33.382  0.00  0.00    -0.246 OA
ENDBRANCH  23  24
ENDBRANCH  20  23
ENDBRANCH  17  20
ENDBRANCH  15  16
ENDBRANCH  13  15
ENDBRANCH  10  11
BRANCH  10  27
ATOM     27  CB  GLN A   5      -0.289  -6.276  41.100  0.00  0.00    +0.039 C 
BRANCH  27  28
ATOM     28  CG  GLN A   5      -0.858  -6.386  39.668  0.00  0.00    +0.087 C 
BRANCH  28  29
ATOM     29  CD  GLN A   5      -1.176  -7.811  39.255  0.00  0.00    +0.219 C 
ATOM     30  OE1 GLN A   5      -1.794  -8.558  40.005  0.00  0.00    -0.275 OA
ATOM     31  NE2 GLN A   5      -0.760  -8.185  38.060  0.00  0.00    -0.329 N 
ATOM     32 HE21 GLN A   5      -0.953  -9.149  37.720  0.00  0.00    +0.145 HD
ATOM     33 HE22 GLN A   5      -0.239  -7.516  37.458  0.00  0.00    +0.145 HD
ENDBRANCH  28  29
ENDBRANCH  27  28
ENDBRANCH  10  27
ENDBRANCH   8  10
ENDBRANCH   5   6
BRANCH   5  34
ATOM     34  CB  ILE A   4       4.513  -6.564  44.671  0.00  0.00    +0.027 C 
ATOM     35  CG2 ILE A   4       5.154  -7.946  44.582  0.00  0.00    +0.002 C 
BRANCH  34  36
ATOM     36  CG1 ILE A   4       5.033  -5.671  43.547  0.00  0.00    +0.002 C 
ATOM     37  CD1 ILE A   4       6.385  -5.073  43.810  0.00  0.00    +0.000 C 
ENDBRANCH  34  36
ENDBRANCH   5  34
ENDBRANCH   3   5
BRANCH   1  38
ATOM     38  CA  VAL A   3       1.002  -7.463  47.810  0.00  0.00    +0.149 C 
BRANCH  38  41
ATOM     39  C   ARG A   2       1.555  -7.612  50.190  0.00  0.00    +0.241 C 
ATOM     40  O   ARG A   2       1.729  -8.834  50.141  0.00  0.00    -0.273 OA
ATOM     41  N   VAL A   3       1.202  -6.886  49.137  0.00  0.00    -0.297 N 
ATOM     42  H   VAL A   3       1.062  -5.863  49.262  0.00  0.00    +0.150 HD
BRANCH  39  43
ATOM     43  CA  ARG A   2       1.728  -6.844  51.503  0.00  0.00    +0.149 C 
BRANCH  43  46
ATOM     44  C   LEU A   1       1.507  -7.703  53.763  0.00  0.00    +0.238 C 
ATOM     45  O   LEU A   1       0.656  -6.861  54.061  0.00  0.00    -0.274 OA
ATOM     46  N   ARG A   2       2.107  -7.745  52.577  0.00  0.00    -0.297 N 
ATOM     47  H   ARG A   2       2.865  -8.439  52.415  0.00  0.00    +0.150 HD
BRANCH  44  48
ATOM     48  CA  LEU A   1       1.950  -8.766  54.753  0.00  0.00    +0.145 C 
BRANCH  48  49
ATOM     49  N   LEU A   1       2.520  -8.208  55.987  0.00  0.00    -0.238 NA
ATOM     50  H   LEU A   1       2.117  -7.337  56.387  0.00  0.00    +0.142 HD
ENDBRANCH  48  49
BRANCH  48  51
ATOM     51  CB  LEU A   1       0.773  -9.707  55.072  0.00  0.00    +0.026 C 
BRANCH  51  52
ATOM     52  CG  LEU A   1       0.182 -10.618  53.989  0.00  0.00    +0.002 C 
ATOM     53  CD2 LEU A   1      -1.072 -11.257  54.502  0.00  0.00    +0.000 C 
ATOM     54  CD1 LEU A   1       1.174 -11.682  53.585  0.00  0.00    +0.000 C 
ENDBRANCH  51  52
ENDBRANCH  48  51
ENDBRANCH  44  48
ENDBRANCH  43  46
BRANCH  43  55
ATOM     55  CB  ARG A   2       2.749  -5.701  51.366  0.00  0.00    +0.033 C 
BRANCH  55  56
ATOM     56  CG  ARG A   2       2.770  -4.686  52.530  0.00  0.00    +0.045 C 
BRANCH  56  57
ATOM     57  CD  ARG A   2       1.460  -3.916  52.724  0.00  0.00    +0.174 C 
BRANCH  57  58
ATOM     58  NE  ARG A   2       1.545  -2.879  53.763  0.00  0.00    -0.265 N 
ATOM     59  CZ  ARG A   2       1.086  -3.014  55.004  0.00  0.00    +0.342 C 
ATOM     60  NH2 ARG A   2       1.202  -2.009  55.870  0.00  0.00    -0.292 N 
ATOM     61 HH21 ARG A   2       0.843  -2.115  56.840  0.00  0.00    +0.255 HD
ATOM     62 HH22 ARG A   2       1.652  -1.118  55.576  0.00  0.00    +0.255 HD
ATOM     63  NH1 ARG A   2       0.508  -4.151  55.382  0.00  0.00    -0.292 N 
ATOM     64 HH11 ARG A   2       0.150  -4.255  56.353  0.00  0.00    +0.255 HD
ATOM     65 HH12 ARG A   2       0.414  -4.936  54.707  0.00  0.00    +0.255 HD
ATOM     66  HE  ARG A   2       1.996  -1.977  53.510  0.00  0.00    +0.259 HD
ENDBRANCH  57  58
ENDBRANCH  56  57
ENDBRANCH  55  56
ENDBRANCH  43  55
ENDBRANCH  39  43
ENDBRANCH  38  41
BRANCH  38  67
ATOM     67  CB  VAL A   3      -0.497  -7.496  47.434  0.00  0.00    +0.027 C 
ATOM     68  CG2 VAL A   3      -1.290  -8.341  48.435  0.00  0.00    +0.002 C 
ATOM     69  CG1 VAL A   3      -0.722  -8.001  45.998  0.00  0.00    +0.002 C 
ENDBRANCH  38  67
ENDBRANCH   1  38
TORSDOF 28
REMARK  Name = ../refined-set-2016/2gvj/2gvj_pocket.pdb
REMARK  262 active torsions:
REMARK  status: ('A' for Active; 'I' for Inactive)
REMARK    1  A    between atoms: _1  and  _3
REMARK    2  A    between atoms: _3  and  _4
REMARK    3  A    between atoms: _3  and  _6
REMARK    4  A    between atoms: _6  and  _7
REMARK    5  A    between atoms: _10  and  _12
REMARK    6  A    between atoms: _12  and  _13
REMARK    7  A    between atoms: _12  and  _15
REMARK    8  A    between atoms: _15  and  _16
REMARK    9  A    between atoms: _19  and  _21
REMARK   10  A    between atoms: _21  and  _22
REMARK   11  A    between atoms: _21  and  _24
REMARK   12  A    between atoms: _24  and  _25
REMARK   13  A    between atoms: _27  and  _29
REMARK   14  A    between atoms: _29  and  _30
REMARK   15  A    between atoms: _29  and  _32
REMARK   16  A    between atoms: _32  and  _33
REMARK   17  A    between atoms: _38  and  _39
REMARK   18  A    between atoms: _41  and  _43
REMARK   19  A    between atoms: _43  and  _44
REMARK   20  A    between atoms: _43  and  _46
REMARK   21  A    between atoms: _46  and  _47
REMARK   22  A    between atoms: _47  and  _48
REMARK   23  A    between atoms: _48  and  _49
REMARK   24  A    between atoms: _49  and  _50
REMARK   25  A    between atoms: _54  and  _56
REMARK   26  A    between atoms: _56  and  _57
REMARK   27  A    between atoms: _56  and  _59
REMARK   28  A    between atoms: _59  and  _60
REMARK   29  A    between atoms: _65  and  _67
REMARK   30  A    between atoms: _67  and  _68
REMARK   31  A    between atoms: _67  and  _70
REMARK   32  A    between atoms: _70  and  _71
REMARK   33  A    between atoms: _71  and  _72
REMARK   34  A    between atoms: _75  and  _77
REMARK   35  A    between atoms: _77  and  _78
REMARK   36  A    between atoms: _77  and  _80
REMARK   37  A    between atoms: _80  and  _81
REMARK   38  A    between atoms: _84  and  _86
REMARK   39  A    between atoms: _86  and  _87
REMARK   40  A    between atoms: _86  and  _89
REMARK   41  A    between atoms: _89  and  _90
REMARK   42  A    between atoms: _90  and  _91
REMARK   43  A    between atoms: _91  and  _92
REMARK   44  A    between atoms: _101  and  _103
REMARK   45  A    between atoms: _103  and  _104
REMARK   46  A    between atoms: _103  and  _106
REMARK   47  A    between atoms: _106  and  _107
REMARK   48  A    between atoms: _110  and  _112
REMARK   49  A    between atoms: _112  and  _113
REMARK   50  A    between atoms: _112  and  _115
REMARK   51  A    between atoms: _115  and  _116
REMARK   52  A    between atoms: _119  and  _121
REMARK   53  A    between atoms: _121  and  _122
REMARK   54  A    between atoms: _124  and  _126
REMARK   55  A    between atoms: _126  and  _127
REMARK   56  A    between atoms: _126  and  _129
REMARK   57  A    between atoms: _129  and  _130
REMARK   58  A    between atoms: _130  and  _131
REMARK   59  A    between atoms: _134  and  _136
REMARK   60  A    between atoms: _136  and  _137
REMARK   61  A    between atoms: _136  and  _139
REMARK   62  A    between atoms: _139  and  _140
REMARK   63  A    between atoms: _145  and  _146
REMARK   64  A    between atoms: _148  and  _150
REMARK   65  A    between atoms: _150  and  _151
REMARK   66  A    between atoms: _150  and  _153
REMARK   67  A    between atoms: _153  and  _154
REMARK   68  A    between atoms: _154  and  _155
REMARK   69  A    between atoms: _155  and  _156
REMARK   70  A    between atoms: _156  and  _157
REMARK   71  A    between atoms: _161  and  _163
REMARK   72  A    between atoms: _163  and  _164
REMARK   73  A    between atoms: _163  and  _166
REMARK   74  A    between atoms: _166  and  _167
REMARK   75  A    between atoms: _170  and  _172
REMARK   76  A    between atoms: _172  and  _173
REMARK   77  A    between atoms: _172  and  _175
REMARK   78  A    between atoms: _175  and  _176
REMARK   79  A    between atoms: _181  and  _183
REMARK   80  A    between atoms: _183  and  _184
REMARK   81  A    between atoms: _183  and  _186
REMARK   82  A    between atoms: _186  and  _187
REMARK   83  A    between atoms: _190  and  _192
REMARK   84  A    between atoms: _192  and  _193
REMARK   85  A    between atoms: _192  and  _195
REMARK   86  A    between atoms: _195  and  _196
REMARK   87  A    between atoms: _202  and  _204
REMARK   88  A    between atoms: _204  and  _205
REMARK   89  A    between atoms: _207  and  _209
REMARK   90  A    between atoms: _209  and  _210
REMARK   91  A    between atoms: _209  and  _212
REMARK   92  A    between atoms: _212  and  _213
REMARK   93  A    between atoms: _218  and  _219
REMARK   94  A    between atoms: _221  and  _223
REMARK   95  A    between atoms: _223  and  _224
REMARK   96  A    between atoms: _223  and  _226
REMARK   97  A    between atoms: _226  and  _227
REMARK   98  A    between atoms: _227  and  _228
REMARK   99  A    between atoms: _228  and  _229
REMARK  100  A    between atoms: _238  and  _240
REMARK  101  A    between atoms: _240  and  _241
REMARK  102  A    between atoms: _243  and  _245
REMARK  103  A    between atoms: _245  and  _246
REMARK  104  A    between atoms: _248  and  _250
REMARK  105  A    between atoms: _250  and  _251
REMARK  106  A    between atoms: _250  and  _253
REMARK  107  A    between atoms: _253  and  _254
REMARK  108  A    between atoms: _257  and  _259
REMARK  109  A    between atoms: _259  and  _260
REMARK  110  A    between atoms: _259  and  _262
REMARK  111  A    between atoms: _262  and  _263
REMARK  112  A    between atoms: _266  and  _268
REMARK  113  A    between atoms: _268  and  _269
REMARK  114  A    between atoms: _268  and  _271
REMARK  115  A    between atoms: _271  and  _272
REMARK  116  A    between atoms: _275  and  _277
REMARK  117  A    between atoms: _277  and  _278
REMARK  118  A    between atoms: _277  and  _280
REMARK  119  A    between atoms: _280  and  _281
REMARK  120  A    between atoms: _286  and  _287
REMARK  121  A    between atoms: _289  and  _291
REMARK  122  A    between atoms: _291  and  _292
REMARK  123  A    between atoms: _291  and  _294
REMARK  124  A    between atoms: _294  and  _295
REMARK  125  A    between atoms: _297  and  _299
REMARK  126  A    between atoms: _299  and  _300
REMARK  127  A    between atoms: _299  and  _302
REMARK  128  A    between atoms: _306  and  _307
REMARK  129  A    between atoms: _312  and  _314
REMARK  130  A    between atoms: _314  and  _315
REMARK  131  A    between atoms: _318  and  _320
REMARK  132  A    between atoms: _320  and  _321
REMARK  133  A    between atoms: _324  and  _326
REMARK  134  A    between atoms: _326  and  _327
REMARK  135  A    between atoms: _326  and  _329
REMARK  136  A    between atoms: _329  and  _330
REMARK  137  A    between atoms: _330  and  _331
REMARK  138  A    between atoms: _334  and  _336
REMARK  139  A    between atoms: _336  and  _337
REMARK  140  A    between atoms: _336  and  _339
REMARK  141  A    between atoms: _339  and  _340
REMARK  142  A    between atoms: _346  and  _347
REMARK  143  A    between atoms: _352  and  _354
REMARK  144  A    between atoms: _354  and  _355
REMARK  145  A    between atoms: _354  and  _357
REMARK  146  A    between atoms: _360  and  _362
REMARK  147  A    between atoms: _362  and  _363
REMARK  148  A    between atoms: _362  and  _365
REMARK  149  A    between atoms: _365  and  _366
REMARK  150  A    between atoms: _368  and  _370
REMARK  151  A    between atoms: _370  and  _371
REMARK  152  A    between atoms: _370  and  _373
REMARK  153  A    between atoms: _376  and  _378
REMARK  154  A    between atoms: _378  and  _379
REMARK  155  A    between atoms: _378  and  _381
REMARK  156  A    between atoms: _384  and  _386
REMARK  157  A    between atoms: _386  and  _387
REMARK  158  A    between atoms: _386  and  _389
REMARK  159  A    between atoms: _389  and  _390
REMARK  160  A    between atoms: _393  and  _395
REMARK  161  A    between atoms: _395  and  _396
REMARK  162  A    between atoms: _395  and  _398
REMARK  163  A    between atoms: _398  and  _399
REMARK  164  A    between atoms: _399  and  _400
REMARK  165  A    between atoms: _405  and  _407
REMARK  166  A    between atoms: _407  and  _408
REMARK  167  A    between atoms: _412  and  _413
REMARK  168  A    between atoms: _418  and  _420
REMARK  169  A    between atoms: _420  and  _421
REMARK  170  A    between atoms: _420  and  _423
REMARK  171  A    between atoms: _423  and  _424
REMARK  172  A    between atoms: _427  and  _429
REMARK  173  A    between atoms: _429  and  _430
REMARK  174  A    between atoms: _429  and  _432
REMARK  175  A    between atoms: _432  and  _433
REMARK  176  A    between atoms: _436  and  _438
REMARK  177  A    between atoms: _438  and  _439
REMARK  178  A    between atoms: _438  and  _441
REMARK  179  A    between atoms: _441  and  _442
REMARK  180  A    between atoms: _445  and  _447
REMARK  181  A    between atoms: _447  and  _448
REMARK  182  A    between atoms: _447  and  _450
REMARK  183  A    between atoms: _450  and  _451
REMARK  184  A    between atoms: _451  and  _452
REMARK  185  A    between atoms: _452  and  _453
REMARK  186  A    between atoms: _463  and  _464
REMARK  187  A    between atoms: _469  and  _471
REMARK  188  A    between atoms: _471  and  _472
REMARK  189  A    between atoms: _471  and  _474
REMARK  190  A    between atoms: _474  and  _475
REMARK  191  A    between atoms: _478  and  _480
REMARK  192  A    between atoms: _480  and  _481
REMARK  193  A    between atoms: _480  and  _483
REMARK  194  A    between atoms: _483  and  _484
REMARK  195  A    between atoms: _487  and  _489
REMARK  196  A    between atoms: _489  and  _490
REMARK  197  A    between atoms: _489  and  _492
REMARK  198  A    between atoms: _492  and  _493
REMARK  199  A    between atoms: _497  and  _498
REMARK  200  A    between atoms: _503  and  _505
REMARK  201  A    between atoms: _505  and  _506
REMARK  202  A    between atoms: _505  and  _508
REMARK  203  A    between atoms: _508  and  _509
REMARK  204  A    between atoms: _512  and  _514
REMARK  205  A    between atoms: _514  and  _515
REMARK  206  A    between atoms: _514  and  _517
REMARK  207  A    between atoms: _517  and  _518
REMARK  208  A    between atoms: _518  and  _519
REMARK  209  A    between atoms: _519  and  _520
REMARK  210  A    between atoms: _529  and  _531
REMARK  211  A    between atoms: _531  and  _532
REMARK  212  A    between atoms: _531  and  _534
REMARK  213  A    between atoms: _537  and  _539
REMARK  214  A    between atoms: _539  and  _540
REMARK  215  A    between atoms: _539  and  _542
REMARK  216  A    between atoms: _542  and  _543
REMARK  217  A    between atoms: _546  and  _548
REMARK  218  A    between atoms: _548  and  _549
REMARK  219  A    between atoms: _548  and  _551
REMARK  220  A    between atoms: _551  and  _552
REMARK  221  A    between atoms: _552  and  _553
REMARK  222  A    between atoms: _558  and  _560
REMARK  223  A    between atoms: _560  and  _561
REMARK  224  A    between atoms: _563  and  _565
REMARK  225  A    between atoms: _565  and  _566
REMARK  226  A    between atoms: _565  and  _568
REMARK  227  A    between atoms: _568  and  _569
REMARK  228  A    between atoms: _572  and  _574
REMARK  229  A    between atoms: _574  and  _575
REMARK  230  A    between atoms: _574  and  _577
REMARK  231  A    between atoms: _577  and  _578
REMARK  232  A    between atoms: _580  and  _582
REMARK  233  A    between atoms: _582  and  _583
REMARK  234  A    between atoms: _582  and  _585
REMARK  235  A    between atoms: _585  and  _586
REMARK  236  A    between atoms: _589  and  _591
REMARK  237  A    between atoms: _591  and  _592
REMARK  238  A    between atoms: _591  and  _594
REMARK  239  A    between atoms: _594  and  _595
REMARK  240  A    between atoms: _595  and  _596
REMARK  241  A    between atoms: _599  and  _601
REMARK  242  A    between atoms: _601  and  _602
REMARK  243  A    between atoms: _601  and  _604
REMARK  244  A    between atoms: _604  and  _605
REMARK  245  A    between atoms: _610  and  _612
REMARK  246  A    between atoms: _612  and  _613
REMARK  247  A    between atoms: _612  and  _615
REMARK  248  A    between atoms: _615  and  _616
REMARK  249  A    between atoms: _619  and  _621
REMARK  250  A    between atoms: _621  and  _622
REMARK  251  A    between atoms: _625  and  _627
REMARK  252  A    between atoms: _627  and  _628
REMARK  253  A    between atoms: _627  and  _630
REMARK  254  A    between atoms: _630  and  _631
REMARK  255  A    between atoms: _637  and  _639
REMARK  256  A    between atoms: _639  and  _640
REMARK  257  A    between atoms: _642  and  _644
REMARK  258  A    between atoms: _644  and  _645
REMARK  259  A    between atoms: _644  and  _647
REMARK  260  A    between atoms: _647  and  _648
REMARK  261  A    between atoms: _650  and  _652
REMARK  262  A    between atoms: _652  and  _653
REMARK                            x       y       z     vdW  Elec       q    Type
REMARK                         _______ _______ _______ _____ _____    ______ ____
ROOT
ATOM      1  CA  ILE A   5      -0.033  -2.648  47.396  0.00  0.00    +0.149 C 
ENDROOT
BRANCH   1   2
ATOM      2  C   ILE A   5       1.142  -1.829  46.911  0.00  0.00    +0.241 C 
ATOM      3  O   ILE A   5       1.261  -0.639  47.217  0.00  0.00    -0.273 OA
ATOM      4  N   ALA A   6       1.999  -2.500  46.145  0.00  0.00    -0.297 N 
ATOM      5  H   ALA A   6       1.950  -3.539  46.157  0.00  0.00    +0.150 HD
BRANCH   4   6
ATOM      6  CA  ALA A   6       3.001  -1.877  45.291  0.00  0.00    +0.149 C 
ATOM      7  CB  ALA A   6       4.400  -2.153  45.813  0.00  0.00    +0.031 C 
BRANCH   6   8
ATOM      8  C   ALA A   6       2.826  -2.479  43.902  0.00  0.00    +0.241 C 
ATOM      9  O   ALA A   6       2.154  -3.504  43.743  0.00  0.00    -0.273 OA
ATOM     10  N   PHE A   7       3.399  -1.835  42.895  0.00  0.00    -0.297 N 
ATOM     11  H   PHE A   7       3.917  -0.952  43.077  0.00  0.00    +0.150 HD
BRANCH  10  12
ATOM     12  CA  PHE A   7       3.310  -2.350  41.542  0.00  0.00    +0.153 C 
BRANCH  12  13
ATOM     13  C   PHE A   7       4.695  -2.615  40.998  0.00  0.00    +0.241 C 
ATOM     14  O   PHE A   7       5.681  -2.029  41.462  0.00  0.00    -0.273 OA
ATOM     15  N   GLY A   8       4.753  -3.544  40.051  0.00  0.00    -0.295 N 
ATOM     16  H   GLY A   8       3.921  -4.148  39.892  0.00  0.00    +0.150 HD
BRANCH  15  17
ATOM     17  CA  GLY A   8       5.933  -3.751  39.227  0.00  0.00    +0.176 C 
BRANCH  17  18
ATOM     18  C   GLY A   8       5.497  -3.625  37.781  0.00  0.00    +0.243 C 
ATOM     19  O   GLY A   8       4.391  -4.041  37.425  0.00  0.00    -0.273 OA
ATOM     20  N   SER A   9       6.362  -3.062  36.941  0.00  0.00    -0.295 N 
ATOM     21  H   SER A   9       7.283  -2.731  37.294  0.00  0.00    +0.150 HD
BRANCH  20  22
ATOM     22  CA  SER A   9       6.029  -2.905  35.530  0.00  0.00    +0.178 C 
BRANCH  22  23
ATOM     23  C   SER A   9       7.271  -3.097  34.674  0.00  0.00    +0.243 C 
ATOM     24  O   SER A   9       8.348  -2.596  35.005  0.00  0.00    -0.273 OA
ATOM     25  N   GLY A  10       7.116  -3.826  33.570  0.00  0.00    -0.296 N 
ATOM     26  H   GLY A  10       6.160  -4.113  33.279  0.00  0.00    +0.150 HD
BRANCH  25  27
ATOM     27  CA  GLY A  10       8.262  -4.231  32.760  0.00  0.00    +0.163 C 
BRANCH  27  28
ATOM     28  C   GLY A  10       8.300  -3.553  31.407  0.00  0.00    +0.229 C 
ATOM     29  O   GLY A  10       8.803  -2.434  31.281  0.00  0.00    -0.286 OA
ENDBRANCH  27  28
ENDBRANCH  25  27
ENDBRANCH  22  23
BRANCH  22  30
ATOM     30  CB  SER A   9       5.382  -1.536  35.297  0.00  0.00    +0.166 C 
BRANCH  30  31
ATOM     31  OG  SER A   9       5.086  -1.314  33.931  0.00  0.00    -0.380 OA
ATOM     32  H   SER A   9       4.459  -2.011  33.613  0.00  0.00    +0.211 HD
ENDBRANCH  30  31
ENDBRANCH  22  30
ENDBRANCH  20  22
ENDBRANCH  17  18
ENDBRANCH  15  17
ENDBRANCH  12  13
BRANCH  12  33
ATOM     33  CB  PHE A   7       2.514  -1.407  40.634  0.00  0.00    +0.055 C 
BRANCH  33  34
ATOM     34  CG  PHE A   7       1.071  -1.249  41.055  0.00  0.00    -0.020 A 
ATOM     35  CD2 PHE A   7       0.709  -0.301  42.011  0.00  0.00    -0.004 A 
ATOM     36  CE2 PHE A   7      -0.613  -0.164  42.415  0.00  0.00    -0.000 A 
ATOM     37  CZ  PHE A   7      -1.587  -0.993  41.884  0.00  0.00    -0.000 A 
ATOM     38  CE1 PHE A   7      -1.237  -1.953  40.936  0.00  0.00    -0.000 A 
ATOM     39  CD1 PHE A   7       0.088  -2.080  40.534  0.00  0.00    -0.004 A 
ENDBRANCH  33  34
ENDBRANCH  12  33
ENDBRANCH  10  12
ENDBRANCH   6   8
ENDBRANCH   4   6
ENDBRANCH   1   2
BRANCH   1  42
ATOM     40  C   ASN A   4      -0.762  -3.104  49.676  0.00  0.00    +0.241 C 
ATOM     41  O   ASN A   4      -0.378  -4.277  49.629  0.00  0.00    -0.273 OA
ATOM     42  N   ILE A   5      -0.559  -2.235  48.692  0.00  0.00    -0.297 N 
ATOM     43  H   ILE A   5      -0.782  -1.232  48.850  0.00  0.00    +0.150 HD
BRANCH  40  44
ATOM     44  CA  ASN A   4      -1.557  -2.590  50.877  0.00  0.00    +0.158 C 
BRANCH  44  47
ATOM     45  C   GLU A   3      -0.576  -0.365  51.369  0.00  0.00    +0.241 C 
ATOM     46  O   GLU A   3       0.515  -0.823  51.657  0.00  0.00    -0.273 OA
ATOM     47  N   ASN A   4      -1.611  -1.125  51.000  0.00  0.00    -0.297 N 
ATOM     48  H   ASN A   4      -2.512  -0.651  50.786  0.00  0.00    +0.150 HD
BRANCH  45  49
ATOM     49  CA  GLU A   3      -0.799   1.162  51.388  0.00  0.00    +0.149 C 
BRANCH  49  51
ATOM     50  C   ILE A   2      -1.945   1.365  49.234  0.00  0.00    +0.241 C 
ATOM     51  N   GLU A   3      -1.940   1.573  50.555  0.00  0.00    -0.297 N 
ATOM     52  H   GLU A   3      -2.758   2.034  51.002  0.00  0.00    +0.150 HD
ATOM     53  O   ILE A   2      -0.966   0.924  48.628  0.00  0.00    -0.273 OA
BRANCH  50  54
ATOM     54  CA  ILE A   2      -3.241   1.688  48.481  0.00  0.00    +0.148 C 
BRANCH  54  57
ATOM     55  C   SER A   1      -4.974   0.829  49.994  0.00  0.00    +0.241 C 
ATOM     56  O   SER A   1      -4.651  -0.333  49.767  0.00  0.00    -0.274 OA
ATOM     57  N   ILE A   2      -4.376   1.871  49.415  0.00  0.00    -0.297 N 
ATOM     58  H   ILE A   2      -4.714   2.832  49.624  0.00  0.00    +0.150 HD
BRANCH  55  59
ATOM     59  CA  SER A   1      -6.108   1.127  50.981  0.00  0.00    +0.174 C 
BRANCH  59  60
ATOM     60  N   SER A   1      -7.085   0.043  50.974  0.00  0.00    -0.236 NA
ATOM     61  H   SER A   1      -7.185  -0.549  51.823  0.00  0.00    +0.142 HD
ENDBRANCH  59  60
BRANCH  59  62
ATOM     62  CB  SER A   1      -5.557   1.287  52.385  0.00  0.00    +0.163 C 
BRANCH  62  63
ATOM     63  OG  SER A   1      -4.737   2.421  52.455  0.00  0.00    -0.380 OA
ATOM     64  H   SER A   1      -4.384   2.515  53.375  0.00  0.00    +0.211 HD
ENDBRANCH  62  63
ENDBRANCH  59  62
ENDBRANCH  55  59
ENDBRANCH  54  57
BRANCH  54  65
ATOM     65  CB  ILE A   2      -3.046   2.919  47.519  0.00  0.00    +0.027 C 
ATOM     66  CG2 ILE A   2      -1.889   2.674  46.497  0.00  0.00    +0.002 C 
BRANCH  65  67
ATOM     67  CG1 ILE A   2      -4.350   3.305  46.811  0.00  0.00    +0.002 C 
ATOM     68  CD1 ILE A   2      -5.042   2.184  46.011  0.00  0.00    +0.000 C 
ENDBRANCH  65  67
ENDBRANCH  54  65
ENDBRANCH  50  54
ENDBRANCH  49  51
BRANCH  49  69
ATOM     69  CB  GLU A   3      -0.882   1.739  52.826  0.00  0.00    +0.041 C 
BRANCH  69  70
ATOM     70  CG  GLU A   3      -2.179   1.477  53.576  0.00  0.00    +0.116 C 
BRANCH  70  71
ATOM     71  CD  GLU A   3      -2.499   2.502  54.673  0.00  0.00    +0.365 C 
ATOM     72  OE2 GLU A   3      -1.613   2.862  55.498  0.00  0.00    -0.246 OA
ATOM     73  OE1 GLU A   3      -3.675   2.938  54.724  0.00  0.00    -0.246 OA
ENDBRANCH  70  71
ENDBRANCH  69  70
ENDBRANCH  49  69
ENDBRANCH  45  49
ENDBRANCH  44  47
BRANCH  44  74
ATOM     74  CB  ASN A   4      -2.973  -3.166  50.740  0.00  0.00    +0.114 C 
BRANCH  74  75
ATOM     75  CG  ASN A   4      -3.792  -3.027  51.994  0.00  0.00    +0.222 C 
ATOM     76  ND2 ASN A   4      -3.328  -3.625  53.081  0.00  0.00    -0.329 N 
ATOM     77 HD21 ASN A   4      -3.851  -3.553  53.977  0.00  0.00    +0.145 HD
ATOM     78 HD22 ASN A   4      -2.441  -4.166  53.038  0.00  0.00    +0.145 HD
ATOM     79  OD1 ASN A   4      -4.829  -2.378  51.986  0.00  0.00    -0.275 OA
ENDBRANCH  74  75
ENDBRANCH  44  74
ENDBRANCH  40  44
ENDBRANCH   1  42
BRANCH   1  80
ATOM     80  CB  ILE A   5      -1.145  -2.607  46.329  0.00  0.00    +0.027 C 
ATOM     81  CG2 ILE A   5      -1.425  -1.144  45.899  0.00  0.00    +0.002 C 
BRANCH  80  82
ATOM     82  CG1 ILE A   5      -0.788  -3.535  45.148  0.00  0.00    +0.002 C 
ATOM     83  CD1 ILE A   5      -1.981  -4.095  44.409  0.00  0.00    +0.000 C 
ENDBRANCH  80  82
ENDBRANCH   1  80
TORSDOF 35
REMARK  Name = ../refined-set-2016/2gvj/2gvj_pocket.pdb
REMARK  262 active torsions:
REMARK  status: ('A' for Active; 'I' for Inactive)
REMARK    1  A    between atoms: _1  and  _3
REMARK    2  A    between atoms: _3  and  _4
REMARK    3  A    between atoms: _3  and  _6
REMARK    4  A    between atoms: _6  and  _7
REMARK    5  A    between atoms: _10  and  _12
REMARK    6  A    between atoms: _12  and  _13
REMARK    7  A    between atoms: _12  and  _15
REMARK    8  A    between atoms: _15  and  _16
REMARK    9  A    between atoms: _19  and  _21
REMARK   10  A    between atoms: _21  and  _22
REMARK   11  A    between atoms: _21  and  _24
REMARK   12  A    between atoms: _24  and  _25
REMARK   13  A    between atoms: _27  and  _29
REMARK   14  A    between atoms: _29  and  _30
REMARK   15  A    between atoms: _29  and  _32
REMARK   16  A    between atoms: _32  and  _33
REMARK   17  A    between atoms: _38  and  _39
REMARK   18  A    between atoms: _41  and  _43
REMARK   19  A    between atoms: _43  and  _44
REMARK   20  A    between atoms: _43  and  _46
REMARK   21  A    between atoms: _46  and  _47
REMARK   22  A    between atoms: _47  and  _48
REMARK   23  A    between atoms: _48  and  _49
REMARK   24  A    between atoms: _49  and  _50
REMARK   25  A    between atoms: _54  and  _56
REMARK   26  A    between atoms: _56  and  _57
REMARK   27  A    between atoms: _56  and  _59
REMARK   28  A    between atoms: _59  and  _60
REMARK   29  A    between atoms: _65  and  _67
REMARK   30  A    between atoms: _67  and  _68
REMARK   31  A    between atoms: _67  and  _70
REMARK   32  A    between atoms: _70  and  _71
REMARK   33  A    between atoms: _71  and  _72
REMARK   34  A    between atoms: _75  and  _77
REMARK   35  A    between atoms: _77  and  _78
REMARK   36  A    between atoms: _77  and  _80
REMARK   37  A    between atoms: _80  and  _81
REMARK   38  A    between atoms: _84  and  _86
REMARK   39  A    between atoms: _86  and  _87
REMARK   40  A    between atoms: _86  and  _89
REMARK   41  A    between atoms: _89  and  _90
REMARK   42  A    between atoms: _90  and  _91
REMARK   43  A    between atoms: _91  and  _92
REMARK   44  A    between atoms: _101  and  _103
REMARK   45  A    between atoms: _103  and  _104
REMARK   46  A    between atoms: _103  and  _106
REMARK   47  A    between atoms: _106  and  _107
REMARK   48  A    between atoms: _110  and  _112
REMARK   49  A    between atoms: _112  and  _113
REMARK   50  A    between atoms: _112  and  _115
REMARK   51  A    between atoms: _115  and  _116
REMARK   52  A    between atoms: _119  and  _121
REMARK   53  A    between atoms: _121  and  _122
REMARK   54  A    between atoms: _124  and  _126
REMARK   55  A    between atoms: _126  and  _127
REMARK   56  A    between atoms: _126  and  _129
REMARK   57  A    between atoms: _129  and  _130
REMARK   58  A    between atoms: _130  and  _131
REMARK   59  A    between atoms: _134  and  _136
REMARK   60  A    between atoms: _136  and  _137
REMARK   61  A    between atoms: _136  and  _139
REMARK   62  A    between atoms: _139  and  _140
REMARK   63  A    between atoms: _145  and  _146
REMARK   64  A    between atoms: _148  and  _150
REMARK   65  A    between atoms: _150  and  _151
REMARK   66  A    between atoms: _150  and  _153
REMARK   67  A    between atoms: _153  and  _154
REMARK   68  A    between atoms: _154  and  _155
REMARK   69  A    between atoms: _155  and  _156
REMARK   70  A    between atoms: _156  and  _157
REMARK   71  A    between atoms: _161  and  _163
REMARK   72  A    between atoms: _163  and  _164
REMARK   73  A    between atoms: _163  and  _166
REMARK   74  A    between atoms: _166  and  _167
REMARK   75  A    between atoms: _170  and  _172
REMARK   76  A    between atoms: _172  and  _173
REMARK   77  A    between atoms: _172  and  _175
REMARK   78  A    between atoms: _175  and  _176
REMARK   79  A    between atoms: _181  and  _183
REMARK   80  A    between atoms: _183  and  _184
REMARK   81  A    between atoms: _183  and  _186
REMARK   82  A    between atoms: _186  and  _187
REMARK   83  A    between atoms: _190  and  _192
REMARK   84  A    between atoms: _192  and  _193
REMARK   85  A    between atoms: _192  and  _195
REMARK   86  A    between atoms: _195  and  _196
REMARK   87  A    between atoms: _202  and  _204
REMARK   88  A    between atoms: _204  and  _205
REMARK   89  A    between atoms: _207  and  _209
REMARK   90  A    between atoms: _209  and  _210
REMARK   91  A    between atoms: _209  and  _212
REMARK   92  A    between atoms: _212  and  _213
REMARK   93  A    between atoms: _218  and  _219
REMARK   94  A    between atoms: _221  and  _223
REMARK   95  A    between atoms: _223  and  _224
REMARK   96  A    between atoms: _223  and  _226
REMARK   97  A    between atoms: _226  and  _227
REMARK   98  A    between atoms: _227  and  _228
REMARK   99  A    between atoms: _228  and  _229
REMARK  100  A    between atoms: _238  and  _240
REMARK  101  A    between atoms: _240  and  _241
REMARK  102  A    between atoms: _243  and  _245
REMARK  103  A    between atoms: _245  and  _246
REMARK  104  A    between atoms: _248  and  _250
REMARK  105  A    between atoms: _250  and  _251
REMARK  106  A    between atoms: _250  and  _253
REMARK  107  A    between atoms: _253  and  _254
REMARK  108  A    between atoms: _257  and  _259
REMARK  109  A    between atoms: _259  and  _260
REMARK  110  A    between atoms: _259  and  _262
REMARK  111  A    between atoms: _262  and  _263
REMARK  112  A    between atoms: _266  and  _268
REMARK  113  A    between atoms: _268  and  _269
REMARK  114  A    between atoms: _268  and  _271
REMARK  115  A    between atoms: _271  and  _272
REMARK  116  A    between atoms: _275  and  _277
REMARK  117  A    between atoms: _277  and  _278
REMARK  118  A    between atoms: _277  and  _280
REMARK  119  A    between atoms: _280  and  _281
REMARK  120  A    between atoms: _286  and  _287
REMARK  121  A    between atoms: _289  and  _291
REMARK  122  A    between atoms: _291  and  _292
REMARK  123  A    between atoms: _291  and  _294
REMARK  124  A    between atoms: _294  and  _295
REMARK  125  A    between atoms: _297  and  _299
REMARK  126  A    between atoms: _299  and  _300
REMARK  127  A    between atoms: _299  and  _302
REMARK  128  A    between atoms: _306  and  _307
REMARK  129  A    between atoms: _312  and  _314
REMARK  130  A    between atoms: _314  and  _315
REMARK  131  A    between atoms: _318  and  _320
REMARK  132  A    between atoms: _320  and  _321
REMARK  133  A    between atoms: _324  and  _326
REMARK  134  A    between atoms: _326  and  _327
REMARK  135  A    between atoms: _326  and  _329
REMARK  136  A    between atoms: _329  and  _330
REMARK  137  A    between atoms: _330  and  _331
REMARK  138  A    between atoms: _334  and  _336
REMARK  139  A    between atoms: _336  and  _337
REMARK  140  A    between atoms: _336  and  _339
REMARK  141  A    between atoms: _339  and  _340
REMARK  142  A    between atoms: _346  and  _347
REMARK  143  A    between atoms: _352  and  _354
REMARK  144  A    between atoms: _354  and  _355
REMARK  145  A    between atoms: _354  and  _357
REMARK  146  A    between atoms: _360  and  _362
REMARK  147  A    between atoms: _362  and  _363
REMARK  148  A    between atoms: _362  and  _365
REMARK  149  A    between atoms: _365  and  _366
REMARK  150  A    between atoms: _368  and  _370
REMARK  151  A    between atoms: _370  and  _371
REMARK  152  A    between atoms: _370  and  _373
REMARK  153  A    between atoms: _376  and  _378
REMARK  154  A    between atoms: _378  and  _379
REMARK  155  A    between atoms: _378  and  _381
REMARK  156  A    between atoms: _384  and  _386
REMARK  157  A    between atoms: _386  and  _387
REMARK  158  A    between atoms: _386  and  _389
REMARK  159  A    between atoms: _389  and  _390
REMARK  160  A    between atoms: _393  and  _395
REMARK  161  A    between atoms: _395  and  _396
REMARK  162  A    between atoms: _395  and  _398
REMARK  163  A    between atoms: _398  and  _399
REMARK  164  A    between atoms: _399  and  _400
REMARK  165  A    between atoms: _405  and  _407
REMARK  166  A    between atoms: _407  and  _408
REMARK  167  A    between atoms: _412  and  _413
REMARK  168  A    between atoms: _418  and  _420
REMARK  169  A    between atoms: _420  and  _421
REMARK  170  A    between atoms: _420  and  _423
REMARK  171  A    between atoms: _423  and  _424
REMARK  172  A    between atoms: _427  and  _429
REMARK  173  A    between atoms: _429  and  _430
REMARK  174  A    between atoms: _429  and  _432
REMARK  175  A    between atoms: _432  and  _433
REMARK  176  A    between atoms: _436  and  _438
REMARK  177  A    between atoms: _438  and  _439
REMARK  178  A    between atoms: _438  and  _441
REMARK  179  A    between atoms: _441  and  _442
REMARK  180  A    between atoms: _445  and  _447
REMARK  181  A    between atoms: _447  and  _448
REMARK  182  A    between atoms: _447  and  _450
REMARK  183  A    between atoms: _450  and  _451
REMARK  184  A    between atoms: _451  and  _452
REMARK  185  A    between atoms: _452  and  _453
REMARK  186  A    between atoms: _463  and  _464
REMARK  187  A    between atoms: _469  and  _471
REMARK  188  A    between atoms: _471  and  _472
REMARK  189  A    between atoms: _471  and  _474
REMARK  190  A    between atoms: _474  and  _475
REMARK  191  A    between atoms: _478  and  _480
REMARK  192  A    between atoms: _480  and  _481
REMARK  193  A    between atoms: _480  and  _483
REMARK  194  A    between atoms: _483  and  _484
REMARK  195  A    between atoms: _487  and  _489
REMARK  196  A    between atoms: _489  and  _490
REMARK  197  A    between atoms: _489  and  _492
REMARK  198  A    between atoms: _492  and  _493
REMARK  199  A    between atoms: _497  and  _498
REMARK  200  A    between atoms: _503  and  _505
REMARK  201  A    between atoms: _505  and  _506
REMARK  202  A    between atoms: _505  and  _508
REMARK  203  A    between atoms: _508  and  _509
REMARK  204  A    between atoms: _512  and  _514
REMARK  205  A    between atoms: _514  and  _515
REMARK  206  A    between atoms: _514  and  _517
REMARK  207  A    between atoms: _517  and  _518
REMARK  208  A    between atoms: _518  and  _519
REMARK  209  A    between atoms: _519  and  _520
REMARK  210  A    between atoms: _529  and  _531
REMARK  211  A    between atoms: _531  and  _532
REMARK  212  A    between atoms: _531  and  _534
REMARK  213  A    between atoms: _537  and  _539
REMARK  214  A    between atoms: _539  and  _540
REMARK  215  A    between atoms: _539  and  _542
REMARK  216  A    between atoms: _542  and  _543
REMARK  217  A    between atoms: _546  and  _548
REMARK  218  A    between atoms: _548  and  _549
REMARK  219  A    between atoms: _548  and  _551
REMARK  220  A    between atoms: _551  and  _552
REMARK  221  A    between atoms: _552  and  _553
REMARK  222  A    between atoms: _558  and  _560
REMARK  223  A    between atoms: _560  and  _561
REMARK  224  A    between atoms: _563  and  _565
REMARK  225  A    between atoms: _565  and  _566
REMARK  226  A    between atoms: _565  and  _568
REMARK  227  A    between atoms: _568  and  _569
REMARK  228  A    between atoms: _572  and  _574
REMARK  229  A    between atoms: _574  and  _575
REMARK  230  A    between atoms: _574  and  _577
REMARK  231  A    between atoms: _577  and  _578
REMARK  232  A    between atoms: _580  and  _582
REMARK  233  A    between atoms: _582  and  _583
REMARK  234  A    between atoms: _582  and  _585
REMARK  235  A    between atoms: _585  and  _586
REMARK  236  A    between atoms: _589  and  _591
REMARK  237  A    between atoms: _591  and  _592
REMARK  238  A    between atoms: _591  and  _594
REMARK  239  A    between atoms: _594  and  _595
REMARK  240  A    between atoms: _595  and  _596
REMARK  241  A    between atoms: _599  and  _601
REMARK  242  A    between atoms: _601  and  _602
REMARK  243  A    between atoms: _601  and  _604
REMARK  244  A    between atoms: _604  and  _605
REMARK  245  A    between atoms: _610  and  _612
REMARK  246  A    between atoms: _612  and  _613
REMARK  247  A    between atoms: _612  and  _615
REMARK  248  A    between atoms: _615  and  _616
REMARK  249  A    between atoms: _619  and  _621
REMARK  250  A    between atoms: _621  and  _622
REMARK  251  A    between atoms: _625  and  _627
REMARK  252  A    between atoms: _627  and  _628
REMARK  253  A    between atoms: _627  and  _630
REMARK  254  A    between atoms: _630  and  _631
REMARK  255  A    between atoms: _637  and  _639
REMARK  256  A    between atoms: _639  and  _640
REMARK  257  A    between atoms: _642  and  _644
REMARK  258  A    between atoms: _644  and  _645
REMARK  259  A    between atoms: _644  and  _647
REMARK  260  A    between atoms: _647  and  _648
REMARK  261  A    between atoms: _650  and  _652
REMARK  262  A    between atoms: _652  and  _653
REMARK                            x       y       z     vdW  Elec       q    Type
REMARK                         _______ _______ _______ _____ _____    ______ ____
ROOT
ATOM      1  O   HOH     1       9.399 -14.016  37.467  0.00  0.00    +0.000 OA
ENDROOT
TORSDOF 0
REMARK  Name = ../refined-set-2016/2gvj/2gvj_pocket.pdb
REMARK  262 active torsions:
REMARK  status: ('A' for Active; 'I' for Inactive)
REMARK    1  A    between atoms: _1  and  _3
REMARK    2  A    between atoms: _3  and  _4
REMARK    3  A    between atoms: _3  and  _6
REMARK    4  A    between atoms: _6  and  _7
REMARK    5  A    between atoms: _10  and  _12
REMARK    6  A    between atoms: _12  and  _13
REMARK    7  A    between atoms: _12  and  _15
REMARK    8  A    between atoms: _15  and  _16
REMARK    9  A    between atoms: _19  and  _21
REMARK   10  A    between atoms: _21  and  _22
REMARK   11  A    between atoms: _21  and  _24
REMARK   12  A    between atoms: _24  and  _25
REMARK   13  A    between atoms: _27  and  _29
REMARK   14  A    between atoms: _29  and  _30
REMARK   15  A    between atoms: _29  and  _32
REMARK   16  A    between atoms: _32  and  _33
REMARK   17  A    between atoms: _38  and  _39
REMARK   18  A    between atoms: _41  and  _43
REMARK   19  A    between atoms: _43  and  _44
REMARK   20  A    between atoms: _43  and  _46
REMARK   21  A    between atoms: _46  and  _47
REMARK   22  A    between atoms: _47  and  _48
REMARK   23  A    between atoms: _48  and  _49
REMARK   24  A    between atoms: _49  and  _50
REMARK   25  A    between atoms: _54  and  _56
REMARK   26  A    between atoms: _56  and  _57
REMARK   27  A    between atoms: _56  and  _59
REMARK   28  A    between atoms: _59  and  _60
REMARK   29  A    between atoms: _65  and  _67
REMARK   30  A    between atoms: _67  and  _68
REMARK   31  A    between atoms: _67  and  _70
REMARK   32  A    between atoms: _70  and  _71
REMARK   33  A    between atoms: _71  and  _72
REMARK   34  A    between atoms: _75  and  _77
REMARK   35  A    between atoms: _77  and  _78
REMARK   36  A    between atoms: _77  and  _80
REMARK   37  A    between atoms: _80  and  _81
REMARK   38  A    between atoms: _84  and  _86
REMARK   39  A    between atoms: _86  and  _87
REMARK   40  A    between atoms: _86  and  _89
REMARK   41  A    between atoms: _89  and  _90
REMARK   42  A    between atoms: _90  and  _91
REMARK   43  A    between atoms: _91  and  _92
REMARK   44  A    between atoms: _101  and  _103
REMARK   45  A    between atoms: _103  and  _104
REMARK   46  A    between atoms: _103  and  _106
REMARK   47  A    between atoms: _106  and  _107
REMARK   48  A    between atoms: _110  and  _112
REMARK   49  A    between atoms: _112  and  _113
REMARK   50  A    between atoms: _112  and  _115
REMARK   51  A    between atoms: _115  and  _116
REMARK   52  A    between atoms: _119  and  _121
REMARK   53  A    between atoms: _121  and  _122
REMARK   54  A    between atoms: _124  and  _126
REMARK   55  A    between atoms: _126  and  _127
REMARK   56  A    between atoms: _126  and  _129
REMARK   57  A    between atoms: _129  and  _130
REMARK   58  A    between atoms: _130  and  _131
REMARK   59  A    between atoms: _134  and  _136
REMARK   60  A    between atoms: _136  and  _137
REMARK   61  A    between atoms: _136  and  _139
REMARK   62  A    between atoms: _139  and  _140
REMARK   63  A    between atoms: _145  and  _146
REMARK   64  A    between atoms: _148  and  _150
REMARK   65  A    between atoms: _150  and  _151
REMARK   66  A    between atoms: _150  and  _153
REMARK   67  A    between atoms: _153  and  _154
REMARK   68  A    between atoms: _154  and  _155
REMARK   69  A    between atoms: _155  and  _156
REMARK   70  A    between atoms: _156  and  _157
REMARK   71  A    between atoms: _161  and  _163
REMARK   72  A    between atoms: _163  and  _164
REMARK   73  A    between atoms: _163  and  _166
REMARK   74  A    between atoms: _166  and  _167
REMARK   75  A    between atoms: _170  and  _172
REMARK   76  A    between atoms: _172  and  _173
REMARK   77  A    between atoms: _172  and  _175
REMARK   78  A    between atoms: _175  and  _176
REMARK   79  A    between atoms: _181  and  _183
REMARK   80  A    between atoms: _183  and  _184
REMARK   81  A    between atoms: _183  and  _186
REMARK   82  A    between atoms: _186  and  _187
REMARK   83  A    between atoms: _190  and  _192
REMARK   84  A    between atoms: _192  and  _193
REMARK   85  A    between atoms: _192  and  _195
REMARK   86  A    between atoms: _195  and  _196
REMARK   87  A    between atoms: _202  and  _204
REMARK   88  A    between atoms: _204  and  _205
REMARK   89  A    between atoms: _207  and  _209
REMARK   90  A    between atoms: _209  and  _210
REMARK   91  A    between atoms: _209  and  _212
REMARK   92  A    between atoms: _212  and  _213
REMARK   93  A    between atoms: _218  and  _219
REMARK   94  A    between atoms: _221  and  _223
REMARK   95  A    between atoms: _223  and  _224
REMARK   96  A    between atoms: _223  and  _226
REMARK   97  A    between atoms: _226  and  _227
REMARK   98  A    between atoms: _227  and  _228
REMARK   99  A    between atoms: _228  and  _229
REMARK  100  A    between atoms: _238  and  _240
REMARK  101  A    between atoms: _240  and  _241
REMARK  102  A    between atoms: _243  and  _245
REMARK  103  A    between atoms: _245  and  _246
REMARK  104  A    between atoms: _248  and  _250
REMARK  105  A    between atoms: _250  and  _251
REMARK  106  A    between atoms: _250  and  _253
REMARK  107  A    between atoms: _253  and  _254
REMARK  108  A    between atoms: _257  and  _259
REMARK  109  A    between atoms: _259  and  _260
REMARK  110  A    between atoms: _259  and  _262
REMARK  111  A    between atoms: _262  and  _263
REMARK  112  A    between atoms: _266  and  _268
REMARK  113  A    between atoms: _268  and  _269
REMARK  114  A    between atoms: _268  and  _271
REMARK  115  A    between atoms: _271  and  _272
REMARK  116  A    between atoms: _275  and  _277
REMARK  117  A    between atoms: _277  and  _278
REMARK  118  A    between atoms: _277  and  _280
REMARK  119  A    between atoms: _280  and  _281
REMARK  120  A    between atoms: _286  and  _287
REMARK  121  A    between atoms: _289  and  _291
REMARK  122  A    between atoms: _291  and  _292
REMARK  123  A    between atoms: _291  and  _294
REMARK  124  A    between atoms: _294  and  _295
REMARK  125  A    between atoms: _297  and  _299
REMARK  126  A    between atoms: _299  and  _300
REMARK  127  A    between atoms: _299  and  _302
REMARK  128  A    between atoms: _306  and  _307
REMARK  129  A    between atoms: _312  and  _314
REMARK  130  A    between atoms: _314  and  _315
REMARK  131  A    between atoms: _318  and  _320
REMARK  132  A    between atoms: _320  and  _321
REMARK  133  A    between atoms: _324  and  _326
REMARK  134  A    between atoms: _326  and  _327
REMARK  135  A    between atoms: _326  and  _329
REMARK  136  A    between atoms: _329  and  _330
REMARK  137  A    between atoms: _330  and  _331
REMARK  138  A    between atoms: _334  and  _336
REMARK  139  A    between atoms: _336  and  _337
REMARK  140  A    between atoms: _336  and  _339
REMARK  141  A    between atoms: _339  and  _340
REMARK  142  A    between atoms: _346  and  _347
REMARK  143  A    between atoms: _352  and  _354
REMARK  144  A    between atoms: _354  and  _355
REMARK  145  A    between atoms: _354  and  _357
REMARK  146  A    between atoms: _360  and  _362
REMARK  147  A    between atoms: _362  and  _363
REMARK  148  A    between atoms: _362  and  _365
REMARK  149  A    between atoms: _365  and  _366
REMARK  150  A    between atoms: _368  and  _370
REMARK  151  A    between atoms: _370  and  _371
REMARK  152  A    between atoms: _370  and  _373
REMARK  153  A    between atoms: _376  and  _378
REMARK  154  A    between atoms: _378  and  _379
REMARK  155  A    between atoms: _378  and  _381
REMARK  156  A    between atoms: _384  and  _386
REMARK  157  A    between atoms: _386  and  _387
REMARK  158  A    between atoms: _386  and  _389
REMARK  159  A    between atoms: _389  and  _390
REMARK  160  A    between atoms: _393  and  _395
REMARK  161  A    between atoms: _395  and  _396
REMARK  162  A    between atoms: _395  and  _398
REMARK  163  A    between atoms: _398  and  _399
REMARK  164  A    between atoms: _399  and  _400
REMARK  165  A    between atoms: _405  and  _407
REMARK  166  A    between atoms: _407  and  _408
REMARK  167  A    between atoms: _412  and  _413
REMARK  168  A    between atoms: _418  and  _420
REMARK  169  A    between atoms: _420  and  _421
REMARK  170  A    between atoms: _420  and  _423
REMARK  171  A    between atoms: _423  and  _424
REMARK  172  A    between atoms: _427  and  _429
REMARK  173  A    between atoms: _429  and  _430
REMARK  174  A    between atoms: _429  and  _432
REMARK  175  A    between atoms: _432  and  _433
REMARK  176  A    between atoms: _436  and  _438
REMARK  177  A    between atoms: _438  and  _439
REMARK  178  A    between atoms: _438  and  _441
REMARK  179  A    between atoms: _441  and  _442
REMARK  180  A    between atoms: _445  and  _447
REMARK  181  A    between atoms: _447  and  _448
REMARK  182  A    between atoms: _447  and  _450
REMARK  183  A    between atoms: _450  and  _451
REMARK  184  A    between atoms: _451  and  _452
REMARK  185  A    between atoms: _452  and  _453
REMARK  186  A    between atoms: _463  and  _464
REMARK  187  A    between atoms: _469  and  _471
REMARK  188  A    between atoms: _471  and  _472
REMARK  189  A    between atoms: _471  and  _474
REMARK  190  A    between atoms: _474  and  _475
REMARK  191  A    between atoms: _478  and  _480
REMARK  192  A    between atoms: _480  and  _481
REMARK  193  A    between atoms: _480  and  _483
REMARK  194  A    between atoms: _483  and  _484
REMARK  195  A    between atoms: _487  and  _489
REMARK  196  A    between atoms: _489  and  _490
REMARK  197  A    between atoms: _489  and  _492
REMARK  198  A    between atoms: _492  and  _493
REMARK  199  A    between atoms: _497  and  _498
REMARK  200  A    between atoms: _503  and  _505
REMARK  201  A    between atoms: _505  and  _506
REMARK  202  A    between atoms: _505  and  _508
REMARK  203  A    between atoms: _508  and  _509
REMARK  204  A    between atoms: _512  and  _514
REMARK  205  A    between atoms: _514  and  _515
REMARK  206  A    between atoms: _514  and  _517
REMARK  207  A    between atoms: _517  and  _518
REMARK  208  A    between atoms: _518  and  _519
REMARK  209  A    between atoms: _519  and  _520
REMARK  210  A    between atoms: _529  and  _531
REMARK  211  A    between atoms: _531  and  _532
REMARK  212  A    between atoms: _531  and  _534
REMARK  213  A    between atoms: _537  and  _539
REMARK  214  A    between atoms: _539  and  _540
REMARK  215  A    between atoms: _539  and  _542
REMARK  216  A    between atoms: _542  and  _543
REMARK  217  A    between atoms: _546  and  _548
REMARK  218  A    between atoms: _548  and  _549
REMARK  219  A    between atoms: _548  and  _551
REMARK  220  A    between atoms: _551  and  _552
REMARK  221  A    between atoms: _552  and  _553
REMARK  222  A    between atoms: _558  and  _560
REMARK  223  A    between atoms: _560  and  _561
REMARK  224  A    between atoms: _563  and  _565
REMARK  225  A    between atoms: _565  and  _566
REMARK  226  A    between atoms: _565  and  _568
REMARK  227  A    between atoms: _568  and  _569
REMARK  228  A    between atoms: _572  and  _574
REMARK  229  A    between atoms: _574  and  _575
REMARK  230  A    between atoms: _574  and  _577
REMARK  231  A    between atoms: _577  and  _578
REMARK  232  A    between atoms: _580  and  _582
REMARK  233  A    between atoms: _582  and  _583
REMARK  234  A    between atoms: _582  and  _585
REMARK  235  A    between atoms: _585  and  _586
REMARK  236  A    between atoms: _589  and  _591
REMARK  237  A    between atoms: _591  and  _592
REMARK  238  A    between atoms: _591  and  _594
REMARK  239  A    between atoms: _594  and  _595
REMARK  240  A    between atoms: _595  and  _596
REMARK  241  A    between atoms: _599  and  _601
REMARK  242  A    between atoms: _601  and  _602
REMARK  243  A    between atoms: _601  and  _604
REMARK  244  A    between atoms: _604  and  _605
REMARK  245  A    between atoms: _610  and  _612
REMARK  246  A    between atoms: _612  and  _613
REMARK  247  A    between atoms: _612  and  _615
REMARK  248  A    between atoms: _615  and  _616
REMARK  249  A    between atoms: _619  and  _621
REMARK  250  A    between atoms: _621  and  _622
REMARK  251  A    between atoms: _625  and  _627
REMARK  252  A    between atoms: _627  and  _628
REMARK  253  A    between atoms: _627  and  _630
REMARK  254  A    between atoms: _630  and  _631
REMARK  255  A    between atoms: _637  and  _639
REMARK  256  A    between atoms: _639  and  _640
REMARK  257  A    between atoms: _642  and  _644
REMARK  258  A    between atoms: _644  and  _645
REMARK  259  A    between atoms: _644  and  _647
REMARK  260  A    between atoms: _647  and  _648
REMARK  261  A    between atoms: _650  and  _652
REMARK  262  A    between atoms: _652  and  _653
REMARK                            x       y       z     vdW  Elec       q    Type
REMARK                         _______ _______ _______ _____ _____    ______ ____
ROOT
ATOM      1  O   HOH     1      13.317  -8.204  33.561  0.00  0.00    +0.000 OA
ENDROOT
TORSDOF 0
REMARK  Name = ../refined-set-2016/2gvj/2gvj_pocket.pdb
REMARK  262 active torsions:
REMARK  status: ('A' for Active; 'I' for Inactive)
REMARK    1  A    between atoms: _1  and  _3
REMARK    2  A    between atoms: _3  and  _4
REMARK    3  A    between atoms: _3  and  _6
REMARK    4  A    between atoms: _6  and  _7
REMARK    5  A    between atoms: _10  and  _12
REMARK    6  A    between atoms: _12  and  _13
REMARK    7  A    between atoms: _12  and  _15
REMARK    8  A    between atoms: _15  and  _16
REMARK    9  A    between atoms: _19  and  _21
REMARK   10  A    between atoms: _21  and  _22
REMARK   11  A    between atoms: _21  and  _24
REMARK   12  A    between atoms: _24  and  _25
REMARK   13  A    between atoms: _27  and  _29
REMARK   14  A    between atoms: _29  and  _30
REMARK   15  A    between atoms: _29  and  _32
REMARK   16  A    between atoms: _32  and  _33
REMARK   17  A    between atoms: _38  and  _39
REMARK   18  A    between atoms: _41  and  _43
REMARK   19  A    between atoms: _43  and  _44
REMARK   20  A    between atoms: _43  and  _46
REMARK   21  A    between atoms: _46  and  _47
REMARK   22  A    between atoms: _47  and  _48
REMARK   23  A    between atoms: _48  and  _49
REMARK   24  A    between atoms: _49  and  _50
REMARK   25  A    between atoms: _54  and  _56
REMARK   26  A    between atoms: _56  and  _57
REMARK   27  A    between atoms: _56  and  _59
REMARK   28  A    between atoms: _59  and  _60
REMARK   29  A    between atoms: _65  and  _67
REMARK   30  A    between atoms: _67  and  _68
REMARK   31  A    between atoms: _67  and  _70
REMARK   32  A    between atoms: _70  and  _71
REMARK   33  A    between atoms: _71  and  _72
REMARK   34  A    between atoms: _75  and  _77
REMARK   35  A    between atoms: _77  and  _78
REMARK   36  A    between atoms: _77  and  _80
REMARK   37  A    between atoms: _80  and  _81
REMARK   38  A    between atoms: _84  and  _86
REMARK   39  A    between atoms: _86  and  _87
REMARK   40  A    between atoms: _86  and  _89
REMARK   41  A    between atoms: _89  and  _90
REMARK   42  A    between atoms: _90  and  _91
REMARK   43  A    between atoms: _91  and  _92
REMARK   44  A    between atoms: _101  and  _103
REMARK   45  A    between atoms: _103  and  _104
REMARK   46  A    between atoms: _103  and  _106
REMARK   47  A    between atoms: _106  and  _107
REMARK   48  A    between atoms: _110  and  _112
REMARK   49  A    between atoms: _112  and  _113
REMARK   50  A    between atoms: _112  and  _115
REMARK   51  A    between atoms: _115  and  _116
REMARK   52  A    between atoms: _119  and  _121
REMARK   53  A    between atoms: _121  and  _122
REMARK   54  A    between atoms: _124  and  _126
REMARK   55  A    between atoms: _126  and  _127
REMARK   56  A    between atoms: _126  and  _129
REMARK   57  A    between atoms: _129  and  _130
REMARK   58  A    between atoms: _130  and  _131
REMARK   59  A    between atoms: _134  and  _136
REMARK   60  A    between atoms: _136  and  _137
REMARK   61  A    between atoms: _136  and  _139
REMARK   62  A    between atoms: _139  and  _140
REMARK   63  A    between atoms: _145  and  _146
REMARK   64  A    between atoms: _148  and  _150
REMARK   65  A    between atoms: _150  and  _151
REMARK   66  A    between atoms: _150  and  _153
REMARK   67  A    between atoms: _153  and  _154
REMARK   68  A    between atoms: _154  and  _155
REMARK   69  A    between atoms: _155  and  _156
REMARK   70  A    between atoms: _156  and  _157
REMARK   71  A    between atoms: _161  and  _163
REMARK   72  A    between atoms: _163  and  _164
REMARK   73  A    between atoms: _163  and  _166
REMARK   74  A    between atoms: _166  and  _167
REMARK   75  A    between atoms: _170  and  _172
REMARK   76  A    between atoms: _172  and  _173
REMARK   77  A    between atoms: _172  and  _175
REMARK   78  A    between atoms: _175  and  _176
REMARK   79  A    between atoms: _181  and  _183
REMARK   80  A    between atoms: _183  and  _184
REMARK   81  A    between atoms: _183  and  _186
REMARK   82  A    between atoms: _186  and  _187
REMARK   83  A    between atoms: _190  and  _192
REMARK   84  A    between atoms: _192  and  _193
REMARK   85  A    between atoms: _192  and  _195
REMARK   86  A    between atoms: _195  and  _196
REMARK   87  A    between atoms: _202  and  _204
REMARK   88  A    between atoms: _204  and  _205
REMARK   89  A    between atoms: _207  and  _209
REMARK   90  A    between atoms: _209  and  _210
REMARK   91  A    between atoms: _209  and  _212
REMARK   92  A    between atoms: _212  and  _213
REMARK   93  A    between atoms: _218  and  _219
REMARK   94  A    between atoms: _221  and  _223
REMARK   95  A    between atoms: _223  and  _224
REMARK   96  A    between atoms: _223  and  _226
REMARK   97  A    between atoms: _226  and  _227
REMARK   98  A    between atoms: _227  and  _228
REMARK   99  A    between atoms: _228  and  _229
REMARK  100  A    between atoms: _238  and  _240
REMARK  101  A    between atoms: _240  and  _241
REMARK  102  A    between atoms: _243  and  _245
REMARK  103  A    between atoms: _245  and  _246
REMARK  104  A    between atoms: _248  and  _250
REMARK  105  A    between atoms: _250  and  _251
REMARK  106  A    between atoms: _250  and  _253
REMARK  107  A    between atoms: _253  and  _254
REMARK  108  A    between atoms: _257  and  _259
REMARK  109  A    between atoms: _259  and  _260
REMARK  110  A    between atoms: _259  and  _262
REMARK  111  A    between atoms: _262  and  _263
REMARK  112  A    between atoms: _266  and  _268
REMARK  113  A    between atoms: _268  and  _269
REMARK  114  A    between atoms: _268  and  _271
REMARK  115  A    between atoms: _271  and  _272
REMARK  116  A    between atoms: _275  and  _277
REMARK  117  A    between atoms: _277  and  _278
REMARK  118  A    between atoms: _277  and  _280
REMARK  119  A    between atoms: _280  and  _281
REMARK  120  A    between atoms: _286  and  _287
REMARK  121  A    between atoms: _289  and  _291
REMARK  122  A    between atoms: _291  and  _292
REMARK  123  A    between atoms: _291  and  _294
REMARK  124  A    between atoms: _294  and  _295
REMARK  125  A    between atoms: _297  and  _299
REMARK  126  A    between atoms: _299  and  _300
REMARK  127  A    between atoms: _299  and  _302
REMARK  128  A    between atoms: _306  and  _307
REMARK  129  A    between atoms: _312  and  _314
REMARK  130  A    between atoms: _314  and  _315
REMARK  131  A    between atoms: _318  and  _320
REMARK  132  A    between atoms: _320  and  _321
REMARK  133  A    between atoms: _324  and  _326
REMARK  134  A    between atoms: _326  and  _327
REMARK  135  A    between atoms: _326  and  _329
REMARK  136  A    between atoms: _329  and  _330
REMARK  137  A    between atoms: _330  and  _331
REMARK  138  A    between atoms: _334  and  _336
REMARK  139  A    between atoms: _336  and  _337
REMARK  140  A    between atoms: _336  and  _339
REMARK  141  A    between atoms: _339  and  _340
REMARK  142  A    between atoms: _346  and  _347
REMARK  143  A    between atoms: _352  and  _354
REMARK  144  A    between atoms: _354  and  _355
REMARK  145  A    between atoms: _354  and  _357
REMARK  146  A    between atoms: _360  and  _362
REMARK  147  A    between atoms: _362  and  _363
REMARK  148  A    between atoms: _362  and  _365
REMARK  149  A    between atoms: _365  and  _366
REMARK  150  A    between atoms: _368  and  _370
REMARK  151  A    between atoms: _370  and  _371
REMARK  152  A    between atoms: _370  and  _373
REMARK  153  A    between atoms: _376  and  _378
REMARK  154  A    between atoms: _378  and  _379
REMARK  155  A    between atoms: _378  and  _381
REMARK  156  A    between atoms: _384  and  _386
REMARK  157  A    between atoms: _386  and  _387
REMARK  158  A    between atoms: _386  and  _389
REMARK  159  A    between atoms: _389  and  _390
REMARK  160  A    between atoms: _393  and  _395
REMARK  161  A    between atoms: _395  and  _396
REMARK  162  A    between atoms: _395  and  _398
REMARK  163  A    between atoms: _398  and  _399
REMARK  164  A    between atoms: _399  and  _400
REMARK  165  A    between atoms: _405  and  _407
REMARK  166  A    between atoms: _407  and  _408
REMARK  167  A    between atoms: _412  and  _413
REMARK  168  A    between atoms: _418  and  _420
REMARK  169  A    between atoms: _420  and  _421
REMARK  170  A    between atoms: _420  and  _423
REMARK  171  A    between atoms: _423  and  _424
REMARK  172  A    between atoms: _427  and  _429
REMARK  173  A    between atoms: _429  and  _430
REMARK  174  A    between atoms: _429  and  _432
REMARK  175  A    between atoms: _432  and  _433
REMARK  176  A    between atoms: _436  and  _438
REMARK  177  A    between atoms: _438  and  _439
REMARK  178  A    between atoms: _438  and  _441
REMARK  179  A    between atoms: _441  and  _442
REMARK  180  A    between atoms: _445  and  _447
REMARK  181  A    between atoms: _447  and  _448
REMARK  182  A    between atoms: _447  and  _450
REMARK  183  A    between atoms: _450  and  _451
REMARK  184  A    between atoms: _451  and  _452
REMARK  185  A    between atoms: _452  and  _453
REMARK  186  A    between atoms: _463  and  _464
REMARK  187  A    between atoms: _469  and  _471
REMARK  188  A    between atoms: _471  and  _472
REMARK  189  A    between atoms: _471  and  _474
REMARK  190  A    between atoms: _474  and  _475
REMARK  191  A    between atoms: _478  and  _480
REMARK  192  A    between atoms: _480  and  _481
REMARK  193  A    between atoms: _480  and  _483
REMARK  194  A    between atoms: _483  and  _484
REMARK  195  A    between atoms: _487  and  _489
REMARK  196  A    between atoms: _489  and  _490
REMARK  197  A    between atoms: _489  and  _492
REMARK  198  A    between atoms: _492  and  _493
REMARK  199  A    between atoms: _497  and  _498
REMARK  200  A    between atoms: _503  and  _505
REMARK  201  A    between atoms: _505  and  _506
REMARK  202  A    between atoms: _505  and  _508
REMARK  203  A    between atoms: _508  and  _509
REMARK  204  A    between atoms: _512  and  _514
REMARK  205  A    between atoms: _514  and  _515
REMARK  206  A    between atoms: _514  and  _517
REMARK  207  A    between atoms: _517  and  _518
REMARK  208  A    between atoms: _518  and  _519
REMARK  209  A    between atoms: _519  and  _520
REMARK  210  A    between atoms: _529  and  _531
REMARK  211  A    between atoms: _531  and  _532
REMARK  212  A    between atoms: _531  and  _534
REMARK  213  A    between atoms: _537  and  _539
REMARK  214  A    between atoms: _539  and  _540
REMARK  215  A    between atoms: _539  and  _542
REMARK  216  A    between atoms: _542  and  _543
REMARK  217  A    between atoms: _546  and  _548
REMARK  218  A    between atoms: _548  and  _549
REMARK  219  A    between atoms: _548  and  _551
REMARK  220  A    between atoms: _551  and  _552
REMARK  221  A    between atoms: _552  and  _553
REMARK  222  A    between atoms: _558  and  _560
REMARK  223  A    between atoms: _560  and  _561
REMARK  224  A    between atoms: _563  and  _565
REMARK  225  A    between atoms: _565  and  _566
REMARK  226  A    between atoms: _565  and  _568
REMARK  227  A    between atoms: _568  and  _569
REMARK  228  A    between atoms: _572  and  _574
REMARK  229  A    between atoms: _574  and  _575
REMARK  230  A    between atoms: _574  and  _577
REMARK  231  A    between atoms: _577  and  _578
REMARK  232  A    between atoms: _580  and  _582
REMARK  233  A    between atoms: _582  and  _583
REMARK  234  A    between atoms: _582  and  _585
REMARK  235  A    between atoms: _585  and  _586
REMARK  236  A    between atoms: _589  and  _591
REMARK  237  A    between atoms: _591  and  _592
REMARK  238  A    between atoms: _591  and  _594
REMARK  239  A    between atoms: _594  and  _595
REMARK  240  A    between atoms: _595  and  _596
REMARK  241  A    between atoms: _599  and  _601
REMARK  242  A    between atoms: _601  and  _602
REMARK  243  A    between atoms: _601  and  _604
REMARK  244  A    between atoms: _604  and  _605
REMARK  245  A    between atoms: _610  and  _612
REMARK  246  A    between atoms: _612  and  _613
REMARK  247  A    between atoms: _612  and  _615
REMARK  248  A    between atoms: _615  and  _616
REMARK  249  A    between atoms: _619  and  _621
REMARK  250  A    between atoms: _621  and  _622
REMARK  251  A    between atoms: _625  and  _627
REMARK  252  A    between atoms: _627  and  _628
REMARK  253  A    between atoms: _627  and  _630
REMARK  254  A    between atoms: _630  and  _631
REMARK  255  A    between atoms: _637  and  _639
REMARK  256  A    between atoms: _639  and  _640
REMARK  257  A    between atoms: _642  and  _644
REMARK  258  A    between atoms: _644  and  _645
REMARK  259  A    between atoms: _644  and  _647
REMARK  260  A    between atoms: _647  and  _648
REMARK  261  A    between atoms: _650  and  _652
REMARK  262  A    between atoms: _652  and  _653
REMARK                            x       y       z     vdW  Elec       q    Type
REMARK                         _______ _______ _______ _____ _____    ______ ____
ROOT
ATOM      1  O   HOH     1      14.164  -5.665  35.661  0.00  0.00    +0.000 OA
ENDROOT
TORSDOF 0
REMARK  Name = ../refined-set-2016/2gvj/2gvj_pocket.pdb
REMARK  262 active torsions:
REMARK  status: ('A' for Active; 'I' for Inactive)
REMARK    1  A    between atoms: _1  and  _3
REMARK    2  A    between atoms: _3  and  _4
REMARK    3  A    between atoms: _3  and  _6
REMARK    4  A    between atoms: _6  and  _7
REMARK    5  A    between atoms: _10  and  _12
REMARK    6  A    between atoms: _12  and  _13
REMARK    7  A    between atoms: _12  and  _15
REMARK    8  A    between atoms: _15  and  _16
REMARK    9  A    between atoms: _19  and  _21
REMARK   10  A    between atoms: _21  and  _22
REMARK   11  A    between atoms: _21  and  _24
REMARK   12  A    between atoms: _24  and  _25
REMARK   13  A    between atoms: _27  and  _29
REMARK   14  A    between atoms: _29  and  _30
REMARK   15  A    between atoms: _29  and  _32
REMARK   16  A    between atoms: _32  and  _33
REMARK   17  A    between atoms: _38  and  _39
REMARK   18  A    between atoms: _41  and  _43
REMARK   19  A    between atoms: _43  and  _44
REMARK   20  A    between atoms: _43  and  _46
REMARK   21  A    between atoms: _46  and  _47
REMARK   22  A    between atoms: _47  and  _48
REMARK   23  A    between atoms: _48  and  _49
REMARK   24  A    between atoms: _49  and  _50
REMARK   25  A    between atoms: _54  and  _56
REMARK   26  A    between atoms: _56  and  _57
REMARK   27  A    between atoms: _56  and  _59
REMARK   28  A    between atoms: _59  and  _60
REMARK   29  A    between atoms: _65  and  _67
REMARK   30  A    between atoms: _67  and  _68
REMARK   31  A    between atoms: _67  and  _70
REMARK   32  A    between atoms: _70  and  _71
REMARK   33  A    between atoms: _71  and  _72
REMARK   34  A    between atoms: _75  and  _77
REMARK   35  A    between atoms: _77  and  _78
REMARK   36  A    between atoms: _77  and  _80
REMARK   37  A    between atoms: _80  and  _81
REMARK   38  A    between atoms: _84  and  _86
REMARK   39  A    between atoms: _86  and  _87
REMARK   40  A    between atoms: _86  and  _89
REMARK   41  A    between atoms: _89  and  _90
REMARK   42  A    between atoms: _90  and  _91
REMARK   43  A    between atoms: _91  and  _92
REMARK   44  A    between atoms: _101  and  _103
REMARK   45  A    between atoms: _103  and  _104
REMARK   46  A    between atoms: _103  and  _106
REMARK   47  A    between atoms: _106  and  _107
REMARK   48  A    between atoms: _110  and  _112
REMARK   49  A    between atoms: _112  and  _113
REMARK   50  A    between atoms: _112  and  _115
REMARK   51  A    between atoms: _115  and  _116
REMARK   52  A    between atoms: _119  and  _121
REMARK   53  A    between atoms: _121  and  _122
REMARK   54  A    between atoms: _124  and  _126
REMARK   55  A    between atoms: _126  and  _127
REMARK   56  A    between atoms: _126  and  _129
REMARK   57  A    between atoms: _129  and  _130
REMARK   58  A    between atoms: _130  and  _131
REMARK   59  A    between atoms: _134  and  _136
REMARK   60  A    between atoms: _136  and  _137
REMARK   61  A    between atoms: _136  and  _139
REMARK   62  A    between atoms: _139  and  _140
REMARK   63  A    between atoms: _145  and  _146
REMARK   64  A    between atoms: _148  and  _150
REMARK   65  A    between atoms: _150  and  _151
REMARK   66  A    between atoms: _150  and  _153
REMARK   67  A    between atoms: _153  and  _154
REMARK   68  A    between atoms: _154  and  _155
REMARK   69  A    between atoms: _155  and  _156
REMARK   70  A    between atoms: _156  and  _157
REMARK   71  A    between atoms: _161  and  _163
REMARK   72  A    between atoms: _163  and  _164
REMARK   73  A    between atoms: _163  and  _166
REMARK   74  A    between atoms: _166  and  _167
REMARK   75  A    between atoms: _170  and  _172
REMARK   76  A    between atoms: _172  and  _173
REMARK   77  A    between atoms: _172  and  _175
REMARK   78  A    between atoms: _175  and  _176
REMARK   79  A    between atoms: _181  and  _183
REMARK   80  A    between atoms: _183  and  _184
REMARK   81  A    between atoms: _183  and  _186
REMARK   82  A    between atoms: _186  and  _187
REMARK   83  A    between atoms: _190  and  _192
REMARK   84  A    between atoms: _192  and  _193
REMARK   85  A    between atoms: _192  and  _195
REMARK   86  A    between atoms: _195  and  _196
REMARK   87  A    between atoms: _202  and  _204
REMARK   88  A    between atoms: _204  and  _205
REMARK   89  A    between atoms: _207  and  _209
REMARK   90  A    between atoms: _209  and  _210
REMARK   91  A    between atoms: _209  and  _212
REMARK   92  A    between atoms: _212  and  _213
REMARK   93  A    between atoms: _218  and  _219
REMARK   94  A    between atoms: _221  and  _223
REMARK   95  A    between atoms: _223  and  _224
REMARK   96  A    between atoms: _223  and  _226
REMARK   97  A    between atoms: _226  and  _227
REMARK   98  A    between atoms: _227  and  _228
REMARK   99  A    between atoms: _228  and  _229
REMARK  100  A    between atoms: _238  and  _240
REMARK  101  A    between atoms: _240  and  _241
REMARK  102  A    between atoms: _243  and  _245
REMARK  103  A    between atoms: _245  and  _246
REMARK  104  A    between atoms: _248  and  _250
REMARK  105  A    between atoms: _250  and  _251
REMARK  106  A    between atoms: _250  and  _253
REMARK  107  A    between atoms: _253  and  _254
REMARK  108  A    between atoms: _257  and  _259
REMARK  109  A    between atoms: _259  and  _260
REMARK  110  A    between atoms: _259  and  _262
REMARK  111  A    between atoms: _262  and  _263
REMARK  112  A    between atoms: _266  and  _268
REMARK  113  A    between atoms: _268  and  _269
REMARK  114  A    between atoms: _268  and  _271
REMARK  115  A    between atoms: _271  and  _272
REMARK  116  A    between atoms: _275  and  _277
REMARK  117  A    between atoms: _277  and  _278
REMARK  118  A    between atoms: _277  and  _280
REMARK  119  A    between atoms: _280  and  _281
REMARK  120  A    between atoms: _286  and  _287
REMARK  121  A    between atoms: _289  and  _291
REMARK  122  A    between atoms: _291  and  _292
REMARK  123  A    between atoms: _291  and  _294
REMARK  124  A    between atoms: _294  and  _295
REMARK  125  A    between atoms: _297  and  _299
REMARK  126  A    between atoms: _299  and  _300
REMARK  127  A    between atoms: _299  and  _302
REMARK  128  A    between atoms: _306  and  _307
REMARK  129  A    between atoms: _312  and  _314
REMARK  130  A    between atoms: _314  and  _315
REMARK  131  A    between atoms: _318  and  _320
REMARK  132  A    between atoms: _320  and  _321
REMARK  133  A    between atoms: _324  and  _326
REMARK  134  A    between atoms: _326  and  _327
REMARK  135  A    between atoms: _326  and  _329
REMARK  136  A    between atoms: _329  and  _330
REMARK  137  A    between atoms: _330  and  _331
REMARK  138  A    between atoms: _334  and  _336
REMARK  139  A    between atoms: _336  and  _337
REMARK  140  A    between atoms: _336  and  _339
REMARK  141  A    between atoms: _339  and  _340
REMARK  142  A    between atoms: _346  and  _347
REMARK  143  A    between atoms: _352  and  _354
REMARK  144  A    between atoms: _354  and  _355
REMARK  145  A    between atoms: _354  and  _357
REMARK  146  A    between atoms: _360  and  _362
REMARK  147  A    between atoms: _362  and  _363
REMARK  148  A    between atoms: _362  and  _365
REMARK  149  A    between atoms: _365  and  _366
REMARK  150  A    between atoms: _368  and  _370
REMARK  151  A    between atoms: _370  and  _371
REMARK  152  A    between atoms: _370  and  _373
REMARK  153  A    between atoms: _376  and  _378
REMARK  154  A    between atoms: _378  and  _379
REMARK  155  A    between atoms: _378  and  _381
REMARK  156  A    between atoms: _384  and  _386
REMARK  157  A    between atoms: _386  and  _387
REMARK  158  A    between atoms: _386  and  _389
REMARK  159  A    between atoms: _389  and  _390
REMARK  160  A    between atoms: _393  and  _395
REMARK  161  A    between atoms: _395  and  _396
REMARK  162  A    between atoms: _395  and  _398
REMARK  163  A    between atoms: _398  and  _399
REMARK  164  A    between atoms: _399  and  _400
REMARK  165  A    between atoms: _405  and  _407
REMARK  166  A    between atoms: _407  and  _408
REMARK  167  A    between atoms: _412  and  _413
REMARK  168  A    between atoms: _418  and  _420
REMARK  169  A    between atoms: _420  and  _421
REMARK  170  A    between atoms: _420  and  _423
REMARK  171  A    between atoms: _423  and  _424
REMARK  172  A    between atoms: _427  and  _429
REMARK  173  A    between atoms: _429  and  _430
REMARK  174  A    between atoms: _429  and  _432
REMARK  175  A    between atoms: _432  and  _433
REMARK  176  A    between atoms: _436  and  _438
REMARK  177  A    between atoms: _438  and  _439
REMARK  178  A    between atoms: _438  and  _441
REMARK  179  A    between atoms: _441  and  _442
REMARK  180  A    between atoms: _445  and  _447
REMARK  181  A    between atoms: _447  and  _448
REMARK  182  A    between atoms: _447  and  _450
REMARK  183  A    between atoms: _450  and  _451
REMARK  184  A    between atoms: _451  and  _452
REMARK  185  A    between atoms: _452  and  _453
REMARK  186  A    between atoms: _463  and  _464
REMARK  187  A    between atoms: _469  and  _471
REMARK  188  A    between atoms: _471  and  _472
REMARK  189  A    between atoms: _471  and  _474
REMARK  190  A    between atoms: _474  and  _475
REMARK  191  A    between atoms: _478  and  _480
REMARK  192  A    between atoms: _480  and  _481
REMARK  193  A    between atoms: _480  and  _483
REMARK  194  A    between atoms: _483  and  _484
REMARK  195  A    between atoms: _487  and  _489
REMARK  196  A    between atoms: _489  and  _490
REMARK  197  A    between atoms: _489  and  _492
REMARK  198  A    between atoms: _492  and  _493
REMARK  199  A    between atoms: _497  and  _498
REMARK  200  A    between atoms: _503  and  _505
REMARK  201  A    between atoms: _505  and  _506
REMARK  202  A    between atoms: _505  and  _508
REMARK  203  A    between atoms: _508  and  _509
REMARK  204  A    between atoms: _512  and  _514
REMARK  205  A    between atoms: _514  and  _515
REMARK  206  A    between atoms: _514  and  _517
REMARK  207  A    between atoms: _517  and  _518
REMARK  208  A    between atoms: _518  and  _519
REMARK  209  A    between atoms: _519  and  _520
REMARK  210  A    between atoms: _529  and  _531
REMARK  211  A    between atoms: _531  and  _532
REMARK  212  A    between atoms: _531  and  _534
REMARK  213  A    between atoms: _537  and  _539
REMARK  214  A    between atoms: _539  and  _540
REMARK  215  A    between atoms: _539  and  _542
REMARK  216  A    between atoms: _542  and  _543
REMARK  217  A    between atoms: _546  and  _548
REMARK  218  A    between atoms: _548  and  _549
REMARK  219  A    between atoms: _548  and  _551
REMARK  220  A    between atoms: _551  and  _552
REMARK  221  A    between atoms: _552  and  _553
REMARK  222  A    between atoms: _558  and  _560
REMARK  223  A    between atoms: _560  and  _561
REMARK  224  A    between atoms: _563  and  _565
REMARK  225  A    between atoms: _565  and  _566
REMARK  226  A    between atoms: _565  and  _568
REMARK  227  A    between atoms: _568  and  _569
REMARK  228  A    between atoms: _572  and  _574
REMARK  229  A    between atoms: _574  and  _575
REMARK  230  A    between atoms: _574  and  _577
REMARK  231  A    between atoms: _577  and  _578
REMARK  232  A    between atoms: _580  and  _582
REMARK  233  A    between atoms: _582  and  _583
REMARK  234  A    between atoms: _582  and  _585
REMARK  235  A    between atoms: _585  and  _586
REMARK  236  A    between atoms: _589  and  _591
REMARK  237  A    between atoms: _591  and  _592
REMARK  238  A    between atoms: _591  and  _594
REMARK  239  A    between atoms: _594  and  _595
REMARK  240  A    between atoms: _595  and  _596
REMARK  241  A    between atoms: _599  and  _601
REMARK  242  A    between atoms: _601  and  _602
REMARK  243  A    between atoms: _601  and  _604
REMARK  244  A    between atoms: _604  and  _605
REMARK  245  A    between atoms: _610  and  _612
REMARK  246  A    between atoms: _612  and  _613
REMARK  247  A    between atoms: _612  and  _615
REMARK  248  A    between atoms: _615  and  _616
REMARK  249  A    between atoms: _619  and  _621
REMARK  250  A    between atoms: _621  and  _622
REMARK  251  A    between atoms: _625  and  _627
REMARK  252  A    between atoms: _627  and  _628
REMARK  253  A    between atoms: _627  and  _630
REMARK  254  A    between atoms: _630  and  _631
REMARK  255  A    between atoms: _637  and  _639
REMARK  256  A    between atoms: _639  and  _640
REMARK  257  A    between atoms: _642  and  _644
REMARK  258  A    between atoms: _644  and  _645
REMARK  259  A    between atoms: _644  and  _647
REMARK  260  A    between atoms: _647  and  _648
REMARK  261  A    between atoms: _650  and  _652
REMARK  262  A    between atoms: _652  and  _653
REMARK                            x       y       z     vdW  Elec       q    Type
REMARK                         _______ _______ _______ _____ _____    ______ ____
ROOT
ATOM      1  O   HOH     1      10.625 -15.967  33.097  0.00  0.00    +0.000 OA
ENDROOT
TORSDOF 0
REMARK  Name = ../refined-set-2016/2gvj/2gvj_pocket.pdb
REMARK  262 active torsions:
REMARK  status: ('A' for Active; 'I' for Inactive)
REMARK    1  A    between atoms: _1  and  _3
REMARK    2  A    between atoms: _3  and  _4
REMARK    3  A    between atoms: _3  and  _6
REMARK    4  A    between atoms: _6  and  _7
REMARK    5  A    between atoms: _10  and  _12
REMARK    6  A    between atoms: _12  and  _13
REMARK    7  A    between atoms: _12  and  _15
REMARK    8  A    between atoms: _15  and  _16
REMARK    9  A    between atoms: _19  and  _21
REMARK   10  A    between atoms: _21  and  _22
REMARK   11  A    between atoms: _21  and  _24
REMARK   12  A    between atoms: _24  and  _25
REMARK   13  A    between atoms: _27  and  _29
REMARK   14  A    between atoms: _29  and  _30
REMARK   15  A    between atoms: _29  and  _32
REMARK   16  A    between atoms: _32  and  _33
REMARK   17  A    between atoms: _38  and  _39
REMARK   18  A    between atoms: _41  and  _43
REMARK   19  A    between atoms: _43  and  _44
REMARK   20  A    between atoms: _43  and  _46
REMARK   21  A    between atoms: _46  and  _47
REMARK   22  A    between atoms: _47  and  _48
REMARK   23  A    between atoms: _48  and  _49
REMARK   24  A    between atoms: _49  and  _50
REMARK   25  A    between atoms: _54  and  _56
REMARK   26  A    between atoms: _56  and  _57
REMARK   27  A    between atoms: _56  and  _59
REMARK   28  A    between atoms: _59  and  _60
REMARK   29  A    between atoms: _65  and  _67
REMARK   30  A    between atoms: _67  and  _68
REMARK   31  A    between atoms: _67  and  _70
REMARK   32  A    between atoms: _70  and  _71
REMARK   33  A    between atoms: _71  and  _72
REMARK   34  A    between atoms: _75  and  _77
REMARK   35  A    between atoms: _77  and  _78
REMARK   36  A    between atoms: _77  and  _80
REMARK   37  A    between atoms: _80  and  _81
REMARK   38  A    between atoms: _84  and  _86
REMARK   39  A    between atoms: _86  and  _87
REMARK   40  A    between atoms: _86  and  _89
REMARK   41  A    between atoms: _89  and  _90
REMARK   42  A    between atoms: _90  and  _91
REMARK   43  A    between atoms: _91  and  _92
REMARK   44  A    between atoms: _101  and  _103
REMARK   45  A    between atoms: _103  and  _104
REMARK   46  A    between atoms: _103  and  _106
REMARK   47  A    between atoms: _106  and  _107
REMARK   48  A    between atoms: _110  and  _112
REMARK   49  A    between atoms: _112  and  _113
REMARK   50  A    between atoms: _112  and  _115
REMARK   51  A    between atoms: _115  and  _116
REMARK   52  A    between atoms: _119  and  _121
REMARK   53  A    between atoms: _121  and  _122
REMARK   54  A    between atoms: _124  and  _126
REMARK   55  A    between atoms: _126  and  _127
REMARK   56  A    between atoms: _126  and  _129
REMARK   57  A    between atoms: _129  and  _130
REMARK   58  A    between atoms: _130  and  _131
REMARK   59  A    between atoms: _134  and  _136
REMARK   60  A    between atoms: _136  and  _137
REMARK   61  A    between atoms: _136  and  _139
REMARK   62  A    between atoms: _139  and  _140
REMARK   63  A    between atoms: _145  and  _146
REMARK   64  A    between atoms: _148  and  _150
REMARK   65  A    between atoms: _150  and  _151
REMARK   66  A    between atoms: _150  and  _153
REMARK   67  A    between atoms: _153  and  _154
REMARK   68  A    between atoms: _154  and  _155
REMARK   69  A    between atoms: _155  and  _156
REMARK   70  A    between atoms: _156  and  _157
REMARK   71  A    between atoms: _161  and  _163
REMARK   72  A    between atoms: _163  and  _164
REMARK   73  A    between atoms: _163  and  _166
REMARK   74  A    between atoms: _166  and  _167
REMARK   75  A    between atoms: _170  and  _172
REMARK   76  A    between atoms: _172  and  _173
REMARK   77  A    between atoms: _172  and  _175
REMARK   78  A    between atoms: _175  and  _176
REMARK   79  A    between atoms: _181  and  _183
REMARK   80  A    between atoms: _183  and  _184
REMARK   81  A    between atoms: _183  and  _186
REMARK   82  A    between atoms: _186  and  _187
REMARK   83  A    between atoms: _190  and  _192
REMARK   84  A    between atoms: _192  and  _193
REMARK   85  A    between atoms: _192  and  _195
REMARK   86  A    between atoms: _195  and  _196
REMARK   87  A    between atoms: _202  and  _204
REMARK   88  A    between atoms: _204  and  _205
REMARK   89  A    between atoms: _207  and  _209
REMARK   90  A    between atoms: _209  and  _210
REMARK   91  A    between atoms: _209  and  _212
REMARK   92  A    between atoms: _212  and  _213
REMARK   93  A    between atoms: _218  and  _219
REMARK   94  A    between atoms: _221  and  _223
REMARK   95  A    between atoms: _223  and  _224
REMARK   96  A    between atoms: _223  and  _226
REMARK   97  A    between atoms: _226  and  _227
REMARK   98  A    between atoms: _227  and  _228
REMARK   99  A    between atoms: _228  and  _229
REMARK  100  A    between atoms: _238  and  _240
REMARK  101  A    between atoms: _240  and  _241
REMARK  102  A    between atoms: _243  and  _245
REMARK  103  A    between atoms: _245  and  _246
REMARK  104  A    between atoms: _248  and  _250
REMARK  105  A    between atoms: _250  and  _251
REMARK  106  A    between atoms: _250  and  _253
REMARK  107  A    between atoms: _253  and  _254
REMARK  108  A    between atoms: _257  and  _259
REMARK  109  A    between atoms: _259  and  _260
REMARK  110  A    between atoms: _259  and  _262
REMARK  111  A    between atoms: _262  and  _263
REMARK  112  A    between atoms: _266  and  _268
REMARK  113  A    between atoms: _268  and  _269
REMARK  114  A    between atoms: _268  and  _271
REMARK  115  A    between atoms: _271  and  _272
REMARK  116  A    between atoms: _275  and  _277
REMARK  117  A    between atoms: _277  and  _278
REMARK  118  A    between atoms: _277  and  _280
REMARK  119  A    between atoms: _280  and  _281
REMARK  120  A    between atoms: _286  and  _287
REMARK  121  A    between atoms: _289  and  _291
REMARK  122  A    between atoms: _291  and  _292
REMARK  123  A    between atoms: _291  and  _294
REMARK  124  A    between atoms: _294  and  _295
REMARK  125  A    between atoms: _297  and  _299
REMARK  126  A    between atoms: _299  and  _300
REMARK  127  A    between atoms: _299  and  _302
REMARK  128  A    between atoms: _306  and  _307
REMARK  129  A    between atoms: _312  and  _314
REMARK  130  A    between atoms: _314  and  _315
REMARK  131  A    between atoms: _318  and  _320
REMARK  132  A    between atoms: _320  and  _321
REMARK  133  A    between atoms: _324  and  _326
REMARK  134  A    between atoms: _326  and  _327
REMARK  135  A    between atoms: _326  and  _329
REMARK  136  A    between atoms: _329  and  _330
REMARK  137  A    between atoms: _330  and  _331
REMARK  138  A    between atoms: _334  and  _336
REMARK  139  A    between atoms: _336  and  _337
REMARK  140  A    between atoms: _336  and  _339
REMARK  141  A    between atoms: _339  and  _340
REMARK  142  A    between atoms: _346  and  _347
REMARK  143  A    between atoms: _352  and  _354
REMARK  144  A    between atoms: _354  and  _355
REMARK  145  A    between atoms: _354  and  _357
REMARK  146  A    between atoms: _360  and  _362
REMARK  147  A    between atoms: _362  and  _363
REMARK  148  A    between atoms: _362  and  _365
REMARK  149  A    between atoms: _365  and  _366
REMARK  150  A    between atoms: _368  and  _370
REMARK  151  A    between atoms: _370  and  _371
REMARK  152  A    between atoms: _370  and  _373
REMARK  153  A    between atoms: _376  and  _378
REMARK  154  A    between atoms: _378  and  _379
REMARK  155  A    between atoms: _378  and  _381
REMARK  156  A    between atoms: _384  and  _386
REMARK  157  A    between atoms: _386  and  _387
REMARK  158  A    between atoms: _386  and  _389
REMARK  159  A    between atoms: _389  and  _390
REMARK  160  A    between atoms: _393  and  _395
REMARK  161  A    between atoms: _395  and  _396
REMARK  162  A    between atoms: _395  and  _398
REMARK  163  A    between atoms: _398  and  _399
REMARK  164  A    between atoms: _399  and  _400
REMARK  165  A    between atoms: _405  and  _407
REMARK  166  A    between atoms: _407  and  _408
REMARK  167  A    between atoms: _412  and  _413
REMARK  168  A    between atoms: _418  and  _420
REMARK  169  A    between atoms: _420  and  _421
REMARK  170  A    between atoms: _420  and  _423
REMARK  171  A    between atoms: _423  and  _424
REMARK  172  A    between atoms: _427  and  _429
REMARK  173  A    between atoms: _429  and  _430
REMARK  174  A    between atoms: _429  and  _432
REMARK  175  A    between atoms: _432  and  _433
REMARK  176  A    between atoms: _436  and  _438
REMARK  177  A    between atoms: _438  and  _439
REMARK  178  A    between atoms: _438  and  _441
REMARK  179  A    between atoms: _441  and  _442
REMARK  180  A    between atoms: _445  and  _447
REMARK  181  A    between atoms: _447  and  _448
REMARK  182  A    between atoms: _447  and  _450
REMARK  183  A    between atoms: _450  and  _451
REMARK  184  A    between atoms: _451  and  _452
REMARK  185  A    between atoms: _452  and  _453
REMARK  186  A    between atoms: _463  and  _464
REMARK  187  A    between atoms: _469  and  _471
REMARK  188  A    between atoms: _471  and  _472
REMARK  189  A    between atoms: _471  and  _474
REMARK  190  A    between atoms: _474  and  _475
REMARK  191  A    between atoms: _478  and  _480
REMARK  192  A    between atoms: _480  and  _481
REMARK  193  A    between atoms: _480  and  _483
REMARK  194  A    between atoms: _483  and  _484
REMARK  195  A    between atoms: _487  and  _489
REMARK  196  A    between atoms: _489  and  _490
REMARK  197  A    between atoms: _489  and  _492
REMARK  198  A    between atoms: _492  and  _493
REMARK  199  A    between atoms: _497  and  _498
REMARK  200  A    between atoms: _503  and  _505
REMARK  201  A    between atoms: _505  and  _506
REMARK  202  A    between atoms: _505  and  _508
REMARK  203  A    between atoms: _508  and  _509
REMARK  204  A    between atoms: _512  and  _514
REMARK  205  A    between atoms: _514  and  _515
REMARK  206  A    between atoms: _514  and  _517
REMARK  207  A    between atoms: _517  and  _518
REMARK  208  A    between atoms: _518  and  _519
REMARK  209  A    between atoms: _519  and  _520
REMARK  210  A    between atoms: _529  and  _531
REMARK  211  A    between atoms: _531  and  _532
REMARK  212  A    between atoms: _531  and  _534
REMARK  213  A    between atoms: _537  and  _539
REMARK  214  A    between atoms: _539  and  _540
REMARK  215  A    between atoms: _539  and  _542
REMARK  216  A    between atoms: _542  and  _543
REMARK  217  A    between atoms: _546  and  _548
REMARK  218  A    between atoms: _548  and  _549
REMARK  219  A    between atoms: _548  and  _551
REMARK  220  A    between atoms: _551  and  _552
REMARK  221  A    between atoms: _552  and  _553
REMARK  222  A    between atoms: _558  and  _560
REMARK  223  A    between atoms: _560  and  _561
REMARK  224  A    between atoms: _563  and  _565
REMARK  225  A    between atoms: _565  and  _566
REMARK  226  A    between atoms: _565  and  _568
REMARK  227  A    between atoms: _568  and  _569
REMARK  228  A    between atoms: _572  and  _574
REMARK  229  A    between atoms: _574  and  _575
REMARK  230  A    between atoms: _574  and  _577
REMARK  231  A    between atoms: _577  and  _578
REMARK  232  A    between atoms: _580  and  _582
REMARK  233  A    between atoms: _582  and  _583
REMARK  234  A    between atoms: _582  and  _585
REMARK  235  A    between atoms: _585  and  _586
REMARK  236  A    between atoms: _589  and  _591
REMARK  237  A    between atoms: _591  and  _592
REMARK  238  A    between atoms: _591  and  _594
REMARK  239  A    between atoms: _594  and  _595
REMARK  240  A    between atoms: _595  and  _596
REMARK  241  A    between atoms: _599  and  _601
REMARK  242  A    between atoms: _601  and  _602
REMARK  243  A    between atoms: _601  and  _604
REMARK  244  A    between atoms: _604  and  _605
REMARK  245  A    between atoms: _610  and  _612
REMARK  246  A    between atoms: _612  and  _613
REMARK  247  A    between atoms: _612  and  _615
REMARK  248  A    between atoms: _615  and  _616
REMARK  249  A    between atoms: _619  and  _621
REMARK  250  A    between atoms: _621  and  _622
REMARK  251  A    between atoms: _625  and  _627
REMARK  252  A    between atoms: _627  and  _628
REMARK  253  A    between atoms: _627  and  _630
REMARK  254  A    between atoms: _630  and  _631
REMARK  255  A    between atoms: _637  and  _639
REMARK  256  A    between atoms: _639  and  _640
REMARK  257  A    between atoms: _642  and  _644
REMARK  258  A    between atoms: _644  and  _645
REMARK  259  A    between atoms: _644  and  _647
REMARK  260  A    between atoms: _647  and  _648
REMARK  261  A    between atoms: _650  and  _652
REMARK  262  A    between atoms: _652  and  _653
REMARK                            x       y       z     vdW  Elec       q    Type
REMARK                         _______ _______ _______ _____ _____    ______ ____
ROOT
ATOM      1  O   HOH     1      12.465 -15.109  35.383  0.00  0.00    +0.000 OA
ENDROOT
TORSDOF 0
REMARK  Name = ../refined-set-2016/2gvj/2gvj_pocket.pdb
REMARK  262 active torsions:
REMARK  status: ('A' for Active; 'I' for Inactive)
REMARK    1  A    between atoms: _1  and  _3
REMARK    2  A    between atoms: _3  and  _4
REMARK    3  A    between atoms: _3  and  _6
REMARK    4  A    between atoms: _6  and  _7
REMARK    5  A    between atoms: _10  and  _12
REMARK    6  A    between atoms: _12  and  _13
REMARK    7  A    between atoms: _12  and  _15
REMARK    8  A    between atoms: _15  and  _16
REMARK    9  A    between atoms: _19  and  _21
REMARK   10  A    between atoms: _21  and  _22
REMARK   11  A    between atoms: _21  and  _24
REMARK   12  A    between atoms: _24  and  _25
REMARK   13  A    between atoms: _27  and  _29
REMARK   14  A    between atoms: _29  and  _30
REMARK   15  A    between atoms: _29  and  _32
REMARK   16  A    between atoms: _32  and  _33
REMARK   17  A    between atoms: _38  and  _39
REMARK   18  A    between atoms: _41  and  _43
REMARK   19  A    between atoms: _43  and  _44
REMARK   20  A    between atoms: _43  and  _46
REMARK   21  A    between atoms: _46  and  _47
REMARK   22  A    between atoms: _47  and  _48
REMARK   23  A    between atoms: _48  and  _49
REMARK   24  A    between atoms: _49  and  _50
REMARK   25  A    between atoms: _54  and  _56
REMARK   26  A    between atoms: _56  and  _57
REMARK   27  A    between atoms: _56  and  _59
REMARK   28  A    between atoms: _59  and  _60
REMARK   29  A    between atoms: _65  and  _67
REMARK   30  A    between atoms: _67  and  _68
REMARK   31  A    between atoms: _67  and  _70
REMARK   32  A    between atoms: _70  and  _71
REMARK   33  A    between atoms: _71  and  _72
REMARK   34  A    between atoms: _75  and  _77
REMARK   35  A    between atoms: _77  and  _78
REMARK   36  A    between atoms: _77  and  _80
REMARK   37  A    between atoms: _80  and  _81
REMARK   38  A    between atoms: _84  and  _86
REMARK   39  A    between atoms: _86  and  _87
REMARK   40  A    between atoms: _86  and  _89
REMARK   41  A    between atoms: _89  and  _90
REMARK   42  A    between atoms: _90  and  _91
REMARK   43  A    between atoms: _91  and  _92
REMARK   44  A    between atoms: _101  and  _103
REMARK   45  A    between atoms: _103  and  _104
REMARK   46  A    between atoms: _103  and  _106
REMARK   47  A    between atoms: _106  and  _107
REMARK   48  A    between atoms: _110  and  _112
REMARK   49  A    between atoms: _112  and  _113
REMARK   50  A    between atoms: _112  and  _115
REMARK   51  A    between atoms: _115  and  _116
REMARK   52  A    between atoms: _119  and  _121
REMARK   53  A    between atoms: _121  and  _122
REMARK   54  A    between atoms: _124  and  _126
REMARK   55  A    between atoms: _126  and  _127
REMARK   56  A    between atoms: _126  and  _129
REMARK   57  A    between atoms: _129  and  _130
REMARK   58  A    between atoms: _130  and  _131
REMARK   59  A    between atoms: _134  and  _136
REMARK   60  A    between atoms: _136  and  _137
REMARK   61  A    between atoms: _136  and  _139
REMARK   62  A    between atoms: _139  and  _140
REMARK   63  A    between atoms: _145  and  _146
REMARK   64  A    between atoms: _148  and  _150
REMARK   65  A    between atoms: _150  and  _151
REMARK   66  A    between atoms: _150  and  _153
REMARK   67  A    between atoms: _153  and  _154
REMARK   68  A    between atoms: _154  and  _155
REMARK   69  A    between atoms: _155  and  _156
REMARK   70  A    between atoms: _156  and  _157
REMARK   71  A    between atoms: _161  and  _163
REMARK   72  A    between atoms: _163  and  _164
REMARK   73  A    between atoms: _163  and  _166
REMARK   74  A    between atoms: _166  and  _167
REMARK   75  A    between atoms: _170  and  _172
REMARK   76  A    between atoms: _172  and  _173
REMARK   77  A    between atoms: _172  and  _175
REMARK   78  A    between atoms: _175  and  _176
REMARK   79  A    between atoms: _181  and  _183
REMARK   80  A    between atoms: _183  and  _184
REMARK   81  A    between atoms: _183  and  _186
REMARK   82  A    between atoms: _186  and  _187
REMARK   83  A    between atoms: _190  and  _192
REMARK   84  A    between atoms: _192  and  _193
REMARK   85  A    between atoms: _192  and  _195
REMARK   86  A    between atoms: _195  and  _196
REMARK   87  A    between atoms: _202  and  _204
REMARK   88  A    between atoms: _204  and  _205
REMARK   89  A    between atoms: _207  and  _209
REMARK   90  A    between atoms: _209  and  _210
REMARK   91  A    between atoms: _209  and  _212
REMARK   92  A    between atoms: _212  and  _213
REMARK   93  A    between atoms: _218  and  _219
REMARK   94  A    between atoms: _221  and  _223
REMARK   95  A    between atoms: _223  and  _224
REMARK   96  A    between atoms: _223  and  _226
REMARK   97  A    between atoms: _226  and  _227
REMARK   98  A    between atoms: _227  and  _228
REMARK   99  A    between atoms: _228  and  _229
REMARK  100  A    between atoms: _238  and  _240
REMARK  101  A    between atoms: _240  and  _241
REMARK  102  A    between atoms: _243  and  _245
REMARK  103  A    between atoms: _245  and  _246
REMARK  104  A    between atoms: _248  and  _250
REMARK  105  A    between atoms: _250  and  _251
REMARK  106  A    between atoms: _250  and  _253
REMARK  107  A    between atoms: _253  and  _254
REMARK  108  A    between atoms: _257  and  _259
REMARK  109  A    between atoms: _259  and  _260
REMARK  110  A    between atoms: _259  and  _262
REMARK  111  A    between atoms: _262  and  _263
REMARK  112  A    between atoms: _266  and  _268
REMARK  113  A    between atoms: _268  and  _269
REMARK  114  A    between atoms: _268  and  _271
REMARK  115  A    between atoms: _271  and  _272
REMARK  116  A    between atoms: _275  and  _277
REMARK  117  A    between atoms: _277  and  _278
REMARK  118  A    between atoms: _277  and  _280
REMARK  119  A    between atoms: _280  and  _281
REMARK  120  A    between atoms: _286  and  _287
REMARK  121  A    between atoms: _289  and  _291
REMARK  122  A    between atoms: _291  and  _292
REMARK  123  A    between atoms: _291  and  _294
REMARK  124  A    between atoms: _294  and  _295
REMARK  125  A    between atoms: _297  and  _299
REMARK  126  A    between atoms: _299  and  _300
REMARK  127  A    between atoms: _299  and  _302
REMARK  128  A    between atoms: _306  and  _307
REMARK  129  A    between atoms: _312  and  _314
REMARK  130  A    between atoms: _314  and  _315
REMARK  131  A    between atoms: _318  and  _320
REMARK  132  A    between atoms: _320  and  _321
REMARK  133  A    between atoms: _324  and  _326
REMARK  134  A    between atoms: _326  and  _327
REMARK  135  A    between atoms: _326  and  _329
REMARK  136  A    between atoms: _329  and  _330
REMARK  137  A    between atoms: _330  and  _331
REMARK  138  A    between atoms: _334  and  _336
REMARK  139  A    between atoms: _336  and  _337
REMARK  140  A    between atoms: _336  and  _339
REMARK  141  A    between atoms: _339  and  _340
REMARK  142  A    between atoms: _346  and  _347
REMARK  143  A    between atoms: _352  and  _354
REMARK  144  A    between atoms: _354  and  _355
REMARK  145  A    between atoms: _354  and  _357
REMARK  146  A    between atoms: _360  and  _362
REMARK  147  A    between atoms: _362  and  _363
REMARK  148  A    between atoms: _362  and  _365
REMARK  149  A    between atoms: _365  and  _366
REMARK  150  A    between atoms: _368  and  _370
REMARK  151  A    between atoms: _370  and  _371
REMARK  152  A    between atoms: _370  and  _373
REMARK  153  A    between atoms: _376  and  _378
REMARK  154  A    between atoms: _378  and  _379
REMARK  155  A    between atoms: _378  and  _381
REMARK  156  A    between atoms: _384  and  _386
REMARK  157  A    between atoms: _386  and  _387
REMARK  158  A    between atoms: _386  and  _389
REMARK  159  A    between atoms: _389  and  _390
REMARK  160  A    between atoms: _393  and  _395
REMARK  161  A    between atoms: _395  and  _396
REMARK  162  A    between atoms: _395  and  _398
REMARK  163  A    between atoms: _398  and  _399
REMARK  164  A    between atoms: _399  and  _400
REMARK  165  A    between atoms: _405  and  _407
REMARK  166  A    between atoms: _407  and  _408
REMARK  167  A    between atoms: _412  and  _413
REMARK  168  A    between atoms: _418  and  _420
REMARK  169  A    between atoms: _420  and  _421
REMARK  170  A    between atoms: _420  and  _423
REMARK  171  A    between atoms: _423  and  _424
REMARK  172  A    between atoms: _427  and  _429
REMARK  173  A    between atoms: _429  and  _430
REMARK  174  A    between atoms: _429  and  _432
REMARK  175  A    between atoms: _432  and  _433
REMARK  176  A    between atoms: _436  and  _438
REMARK  177  A    between atoms: _438  and  _439
REMARK  178  A    between atoms: _438  and  _441
REMARK  179  A    between atoms: _441  and  _442
REMARK  180  A    between atoms: _445  and  _447
REMARK  181  A    between atoms: _447  and  _448
REMARK  182  A    between atoms: _447  and  _450
REMARK  183  A    between atoms: _450  and  _451
REMARK  184  A    between atoms: _451  and  _452
REMARK  185  A    between atoms: _452  and  _453
REMARK  186  A    between atoms: _463  and  _464
REMARK  187  A    between atoms: _469  and  _471
REMARK  188  A    between atoms: _471  and  _472
REMARK  189  A    between atoms: _471  and  _474
REMARK  190  A    between atoms: _474  and  _475
REMARK  191  A    between atoms: _478  and  _480
REMARK  192  A    between atoms: _480  and  _481
REMARK  193  A    between atoms: _480  and  _483
REMARK  194  A    between atoms: _483  and  _484
REMARK  195  A    between atoms: _487  and  _489
REMARK  196  A    between atoms: _489  and  _490
REMARK  197  A    between atoms: _489  and  _492
REMARK  198  A    between atoms: _492  and  _493
REMARK  199  A    between atoms: _497  and  _498
REMARK  200  A    between atoms: _503  and  _505
REMARK  201  A    between atoms: _505  and  _506
REMARK  202  A    between atoms: _505  and  _508
REMARK  203  A    between atoms: _508  and  _509
REMARK  204  A    between atoms: _512  and  _514
REMARK  205  A    between atoms: _514  and  _515
REMARK  206  A    between atoms: _514  and  _517
REMARK  207  A    between atoms: _517  and  _518
REMARK  208  A    between atoms: _518  and  _519
REMARK  209  A    between atoms: _519  and  _520
REMARK  210  A    between atoms: _529  and  _531
REMARK  211  A    between atoms: _531  and  _532
REMARK  212  A    between atoms: _531  and  _534
REMARK  213  A    between atoms: _537  and  _539
REMARK  214  A    between atoms: _539  and  _540
REMARK  215  A    between atoms: _539  and  _542
REMARK  216  A    between atoms: _542  and  _543
REMARK  217  A    between atoms: _546  and  _548
REMARK  218  A    between atoms: _548  and  _549
REMARK  219  A    between atoms: _548  and  _551
REMARK  220  A    between atoms: _551  and  _552
REMARK  221  A    between atoms: _552  and  _553
REMARK  222  A    between atoms: _558  and  _560
REMARK  223  A    between atoms: _560  and  _561
REMARK  224  A    between atoms: _563  and  _565
REMARK  225  A    between atoms: _565  and  _566
REMARK  226  A    between atoms: _565  and  _568
REMARK  227  A    between atoms: _568  and  _569
REMARK  228  A    between atoms: _572  and  _574
REMARK  229  A    between atoms: _574  and  _575
REMARK  230  A    between atoms: _574  and  _577
REMARK  231  A    between atoms: _577  and  _578
REMARK  232  A    between atoms: _580  and  _582
REMARK  233  A    between atoms: _582  and  _583
REMARK  234  A    between atoms: _582  and  _585
REMARK  235  A    between atoms: _585  and  _586
REMARK  236  A    between atoms: _589  and  _591
REMARK  237  A    between atoms: _591  and  _592
REMARK  238  A    between atoms: _591  and  _594
REMARK  239  A    between atoms: _594  and  _595
REMARK  240  A    between atoms: _595  and  _596
REMARK  241  A    between atoms: _599  and  _601
REMARK  242  A    between atoms: _601  and  _602
REMARK  243  A    between atoms: _601  and  _604
REMARK  244  A    between atoms: _604  and  _605
REMARK  245  A    between atoms: _610  and  _612
REMARK  246  A    between atoms: _612  and  _613
REMARK  247  A    between atoms: _612  and  _615
REMARK  248  A    between atoms: _615  and  _616
REMARK  249  A    between atoms: _619  and  _621
REMARK  250  A    between atoms: _621  and  _622
REMARK  251  A    between atoms: _625  and  _627
REMARK  252  A    between atoms: _627  and  _628
REMARK  253  A    between atoms: _627  and  _630
REMARK  254  A    between atoms: _630  and  _631
REMARK  255  A    between atoms: _637  and  _639
REMARK  256  A    between atoms: _639  and  _640
REMARK  257  A    between atoms: _642  and  _644
REMARK  258  A    between atoms: _644  and  _645
REMARK  259  A    between atoms: _644  and  _647
REMARK  260  A    between atoms: _647  and  _648
REMARK  261  A    between atoms: _650  and  _652
REMARK  262  A    between atoms: _652  and  _653
REMARK                            x       y       z     vdW  Elec       q    Type
REMARK                         _______ _______ _______ _____ _____    ______ ____
ROOT
ATOM      1  O   HOH     1       6.693 -15.588  33.843  0.00  0.00    +0.000 OA
ENDROOT
TORSDOF 0
REMARK  Name = ../refined-set-2016/2gvj/2gvj_pocket.pdb
REMARK  262 active torsions:
REMARK  status: ('A' for Active; 'I' for Inactive)
REMARK    1  A    between atoms: _1  and  _3
REMARK    2  A    between atoms: _3  and  _4
REMARK    3  A    between atoms: _3  and  _6
REMARK    4  A    between atoms: _6  and  _7
REMARK    5  A    between atoms: _10  and  _12
REMARK    6  A    between atoms: _12  and  _13
REMARK    7  A    between atoms: _12  and  _15
REMARK    8  A    between atoms: _15  and  _16
REMARK    9  A    between atoms: _19  and  _21
REMARK   10  A    between atoms: _21  and  _22
REMARK   11  A    between atoms: _21  and  _24
REMARK   12  A    between atoms: _24  and  _25
REMARK   13  A    between atoms: _27  and  _29
REMARK   14  A    between atoms: _29  and  _30
REMARK   15  A    between atoms: _29  and  _32
REMARK   16  A    between atoms: _32  and  _33
REMARK   17  A    between atoms: _38  and  _39
REMARK   18  A    between atoms: _41  and  _43
REMARK   19  A    between atoms: _43  and  _44
REMARK   20  A    between atoms: _43  and  _46
REMARK   21  A    between atoms: _46  and  _47
REMARK   22  A    between atoms: _47  and  _48
REMARK   23  A    between atoms: _48  and  _49
REMARK   24  A    between atoms: _49  and  _50
REMARK   25  A    between atoms: _54  and  _56
REMARK   26  A    between atoms: _56  and  _57
REMARK   27  A    between atoms: _56  and  _59
REMARK   28  A    between atoms: _59  and  _60
REMARK   29  A    between atoms: _65  and  _67
REMARK   30  A    between atoms: _67  and  _68
REMARK   31  A    between atoms: _67  and  _70
REMARK   32  A    between atoms: _70  and  _71
REMARK   33  A    between atoms: _71  and  _72
REMARK   34  A    between atoms: _75  and  _77
REMARK   35  A    between atoms: _77  and  _78
REMARK   36  A    between atoms: _77  and  _80
REMARK   37  A    between atoms: _80  and  _81
REMARK   38  A    between atoms: _84  and  _86
REMARK   39  A    between atoms: _86  and  _87
REMARK   40  A    between atoms: _86  and  _89
REMARK   41  A    between atoms: _89  and  _90
REMARK   42  A    between atoms: _90  and  _91
REMARK   43  A    between atoms: _91  and  _92
REMARK   44  A    between atoms: _101  and  _103
REMARK   45  A    between atoms: _103  and  _104
REMARK   46  A    between atoms: _103  and  _106
REMARK   47  A    between atoms: _106  and  _107
REMARK   48  A    between atoms: _110  and  _112
REMARK   49  A    between atoms: _112  and  _113
REMARK   50  A    between atoms: _112  and  _115
REMARK   51  A    between atoms: _115  and  _116
REMARK   52  A    between atoms: _119  and  _121
REMARK   53  A    between atoms: _121  and  _122
REMARK   54  A    between atoms: _124  and  _126
REMARK   55  A    between atoms: _126  and  _127
REMARK   56  A    between atoms: _126  and  _129
REMARK   57  A    between atoms: _129  and  _130
REMARK   58  A    between atoms: _130  and  _131
REMARK   59  A    between atoms: _134  and  _136
REMARK   60  A    between atoms: _136  and  _137
REMARK   61  A    between atoms: _136  and  _139
REMARK   62  A    between atoms: _139  and  _140
REMARK   63  A    between atoms: _145  and  _146
REMARK   64  A    between atoms: _148  and  _150
REMARK   65  A    between atoms: _150  and  _151
REMARK   66  A    between atoms: _150  and  _153
REMARK   67  A    between atoms: _153  and  _154
REMARK   68  A    between atoms: _154  and  _155
REMARK   69  A    between atoms: _155  and  _156
REMARK   70  A    between atoms: _156  and  _157
REMARK   71  A    between atoms: _161  and  _163
REMARK   72  A    between atoms: _163  and  _164
REMARK   73  A    between atoms: _163  and  _166
REMARK   74  A    between atoms: _166  and  _167
REMARK   75  A    between atoms: _170  and  _172
REMARK   76  A    between atoms: _172  and  _173
REMARK   77  A    between atoms: _172  and  _175
REMARK   78  A    between atoms: _175  and  _176
REMARK   79  A    between atoms: _181  and  _183
REMARK   80  A    between atoms: _183  and  _184
REMARK   81  A    between atoms: _183  and  _186
REMARK   82  A    between atoms: _186  and  _187
REMARK   83  A    between atoms: _190  and  _192
REMARK   84  A    between atoms: _192  and  _193
REMARK   85  A    between atoms: _192  and  _195
REMARK   86  A    between atoms: _195  and  _196
REMARK   87  A    between atoms: _202  and  _204
REMARK   88  A    between atoms: _204  and  _205
REMARK   89  A    between atoms: _207  and  _209
REMARK   90  A    between atoms: _209  and  _210
REMARK   91  A    between atoms: _209  and  _212
REMARK   92  A    between atoms: _212  and  _213
REMARK   93  A    between atoms: _218  and  _219
REMARK   94  A    between atoms: _221  and  _223
REMARK   95  A    between atoms: _223  and  _224
REMARK   96  A    between atoms: _223  and  _226
REMARK   97  A    between atoms: _226  and  _227
REMARK   98  A    between atoms: _227  and  _228
REMARK   99  A    between atoms: _228  and  _229
REMARK  100  A    between atoms: _238  and  _240
REMARK  101  A    between atoms: _240  and  _241
REMARK  102  A    between atoms: _243  and  _245
REMARK  103  A    between atoms: _245  and  _246
REMARK  104  A    between atoms: _248  and  _250
REMARK  105  A    between atoms: _250  and  _251
REMARK  106  A    between atoms: _250  and  _253
REMARK  107  A    between atoms: _253  and  _254
REMARK  108  A    between atoms: _257  and  _259
REMARK  109  A    between atoms: _259  and  _260
REMARK  110  A    between atoms: _259  and  _262
REMARK  111  A    between atoms: _262  and  _263
REMARK  112  A    between atoms: _266  and  _268
REMARK  113  A    between atoms: _268  and  _269
REMARK  114  A    between atoms: _268  and  _271
REMARK  115  A    between atoms: _271  and  _272
REMARK  116  A    between atoms: _275  and  _277
REMARK  117  A    between atoms: _277  and  _278
REMARK  118  A    between atoms: _277  and  _280
REMARK  119  A    between atoms: _280  and  _281
REMARK  120  A    between atoms: _286  and  _287
REMARK  121  A    between atoms: _289  and  _291
REMARK  122  A    between atoms: _291  and  _292
REMARK  123  A    between atoms: _291  and  _294
REMARK  124  A    between atoms: _294  and  _295
REMARK  125  A    between atoms: _297  and  _299
REMARK  126  A    between atoms: _299  and  _300
REMARK  127  A    between atoms: _299  and  _302
REMARK  128  A    between atoms: _306  and  _307
REMARK  129  A    between atoms: _312  and  _314
REMARK  130  A    between atoms: _314  and  _315
REMARK  131  A    between atoms: _318  and  _320
REMARK  132  A    between atoms: _320  and  _321
REMARK  133  A    between atoms: _324  and  _326
REMARK  134  A    between atoms: _326  and  _327
REMARK  135  A    between atoms: _326  and  _329
REMARK  136  A    between atoms: _329  and  _330
REMARK  137  A    between atoms: _330  and  _331
REMARK  138  A    between atoms: _334  and  _336
REMARK  139  A    between atoms: _336  and  _337
REMARK  140  A    between atoms: _336  and  _339
REMARK  141  A    between atoms: _339  and  _340
REMARK  142  A    between atoms: _346  and  _347
REMARK  143  A    between atoms: _352  and  _354
REMARK  144  A    between atoms: _354  and  _355
REMARK  145  A    between atoms: _354  and  _357
REMARK  146  A    between atoms: _360  and  _362
REMARK  147  A    between atoms: _362  and  _363
REMARK  148  A    between atoms: _362  and  _365
REMARK  149  A    between atoms: _365  and  _366
REMARK  150  A    between atoms: _368  and  _370
REMARK  151  A    between atoms: _370  and  _371
REMARK  152  A    between atoms: _370  and  _373
REMARK  153  A    between atoms: _376  and  _378
REMARK  154  A    between atoms: _378  and  _379
REMARK  155  A    between atoms: _378  and  _381
REMARK  156  A    between atoms: _384  and  _386
REMARK  157  A    between atoms: _386  and  _387
REMARK  158  A    between atoms: _386  and  _389
REMARK  159  A    between atoms: _389  and  _390
REMARK  160  A    between atoms: _393  and  _395
REMARK  161  A    between atoms: _395  and  _396
REMARK  162  A    between atoms: _395  and  _398
REMARK  163  A    between atoms: _398  and  _399
REMARK  164  A    between atoms: _399  and  _400
REMARK  165  A    between atoms: _405  and  _407
REMARK  166  A    between atoms: _407  and  _408
REMARK  167  A    between atoms: _412  and  _413
REMARK  168  A    between atoms: _418  and  _420
REMARK  169  A    between atoms: _420  and  _421
REMARK  170  A    between atoms: _420  and  _423
REMARK  171  A    between atoms: _423  and  _424
REMARK  172  A    between atoms: _427  and  _429
REMARK  173  A    between atoms: _429  and  _430
REMARK  174  A    between atoms: _429  and  _432
REMARK  175  A    between atoms: _432  and  _433
REMARK  176  A    between atoms: _436  and  _438
REMARK  177  A    between atoms: _438  and  _439
REMARK  178  A    between atoms: _438  and  _441
REMARK  179  A    between atoms: _441  and  _442
REMARK  180  A    between atoms: _445  and  _447
REMARK  181  A    between atoms: _447  and  _448
REMARK  182  A    between atoms: _447  and  _450
REMARK  183  A    between atoms: _450  and  _451
REMARK  184  A    between atoms: _451  and  _452
REMARK  185  A    between atoms: _452  and  _453
REMARK  186  A    between atoms: _463  and  _464
REMARK  187  A    between atoms: _469  and  _471
REMARK  188  A    between atoms: _471  and  _472
REMARK  189  A    between atoms: _471  and  _474
REMARK  190  A    between atoms: _474  and  _475
REMARK  191  A    between atoms: _478  and  _480
REMARK  192  A    between atoms: _480  and  _481
REMARK  193  A    between atoms: _480  and  _483
REMARK  194  A    between atoms: _483  and  _484
REMARK  195  A    between atoms: _487  and  _489
REMARK  196  A    between atoms: _489  and  _490
REMARK  197  A    between atoms: _489  and  _492
REMARK  198  A    between atoms: _492  and  _493
REMARK  199  A    between atoms: _497  and  _498
REMARK  200  A    between atoms: _503  and  _505
REMARK  201  A    between atoms: _505  and  _506
REMARK  202  A    between atoms: _505  and  _508
REMARK  203  A    between atoms: _508  and  _509
REMARK  204  A    between atoms: _512  and  _514
REMARK  205  A    between atoms: _514  and  _515
REMARK  206  A    between atoms: _514  and  _517
REMARK  207  A    between atoms: _517  and  _518
REMARK  208  A    between atoms: _518  and  _519
REMARK  209  A    between atoms: _519  and  _520
REMARK  210  A    between atoms: _529  and  _531
REMARK  211  A    between atoms: _531  and  _532
REMARK  212  A    between atoms: _531  and  _534
REMARK  213  A    between atoms: _537  and  _539
REMARK  214  A    between atoms: _539  and  _540
REMARK  215  A    between atoms: _539  and  _542
REMARK  216  A    between atoms: _542  and  _543
REMARK  217  A    between atoms: _546  and  _548
REMARK  218  A    between atoms: _548  and  _549
REMARK  219  A    between atoms: _548  and  _551
REMARK  220  A    between atoms: _551  and  _552
REMARK  221  A    between atoms: _552  and  _553
REMARK  222  A    between atoms: _558  and  _560
REMARK  223  A    between atoms: _560  and  _561
REMARK  224  A    between atoms: _563  and  _565
REMARK  225  A    between atoms: _565  and  _566
REMARK  226  A    between atoms: _565  and  _568
REMARK  227  A    between atoms: _568  and  _569
REMARK  228  A    between atoms: _572  and  _574
REMARK  229  A    between atoms: _574  and  _575
REMARK  230  A    between atoms: _574  and  _577
REMARK  231  A    between atoms: _577  and  _578
REMARK  232  A    between atoms: _580  and  _582
REMARK  233  A    between atoms: _582  and  _583
REMARK  234  A    between atoms: _582  and  _585
REMARK  235  A    between atoms: _585  and  _586
REMARK  236  A    between atoms: _589  and  _591
REMARK  237  A    between atoms: _591  and  _592
REMARK  238  A    between atoms: _591  and  _594
REMARK  239  A    between atoms: _594  and  _595
REMARK  240  A    between atoms: _595  and  _596
REMARK  241  A    between atoms: _599  and  _601
REMARK  242  A    between atoms: _601  and  _602
REMARK  243  A    between atoms: _601  and  _604
REMARK  244  A    between atoms: _604  and  _605
REMARK  245  A    between atoms: _610  and  _612
REMARK  246  A    between atoms: _612  and  _613
REMARK  247  A    between atoms: _612  and  _615
REMARK  248  A    between atoms: _615  and  _616
REMARK  249  A    between atoms: _619  and  _621
REMARK  250  A    between atoms: _621  and  _622
REMARK  251  A    between atoms: _625  and  _627
REMARK  252  A    between atoms: _627  and  _628
REMARK  253  A    between atoms: _627  and  _630
REMARK  254  A    between atoms: _630  and  _631
REMARK  255  A    between atoms: _637  and  _639
REMARK  256  A    between atoms: _639  and  _640
REMARK  257  A    between atoms: _642  and  _644
REMARK  258  A    between atoms: _644  and  _645
REMARK  259  A    between atoms: _644  and  _647
REMARK  260  A    between atoms: _647  and  _648
REMARK  261  A    between atoms: _650  and  _652
REMARK  262  A    between atoms: _652  and  _653
REMARK                            x       y       z     vdW  Elec       q    Type
REMARK                         _______ _______ _______ _____ _____    ______ ____
ROOT
ATOM      1  O   HOH     1      10.071  -0.359  44.678  0.00  0.00    +0.000 OA
ENDROOT
TORSDOF 0
REMARK  Name = ../refined-set-2016/2gvj/2gvj_pocket.pdb
REMARK  262 active torsions:
REMARK  status: ('A' for Active; 'I' for Inactive)
REMARK    1  A    between atoms: _1  and  _3
REMARK    2  A    between atoms: _3  and  _4
REMARK    3  A    between atoms: _3  and  _6
REMARK    4  A    between atoms: _6  and  _7
REMARK    5  A    between atoms: _10  and  _12
REMARK    6  A    between atoms: _12  and  _13
REMARK    7  A    between atoms: _12  and  _15
REMARK    8  A    between atoms: _15  and  _16
REMARK    9  A    between atoms: _19  and  _21
REMARK   10  A    between atoms: _21  and  _22
REMARK   11  A    between atoms: _21  and  _24
REMARK   12  A    between atoms: _24  and  _25
REMARK   13  A    between atoms: _27  and  _29
REMARK   14  A    between atoms: _29  and  _30
REMARK   15  A    between atoms: _29  and  _32
REMARK   16  A    between atoms: _32  and  _33
REMARK   17  A    between atoms: _38  and  _39
REMARK   18  A    between atoms: _41  and  _43
REMARK   19  A    between atoms: _43  and  _44
REMARK   20  A    between atoms: _43  and  _46
REMARK   21  A    between atoms: _46  and  _47
REMARK   22  A    between atoms: _47  and  _48
REMARK   23  A    between atoms: _48  and  _49
REMARK   24  A    between atoms: _49  and  _50
REMARK   25  A    between atoms: _54  and  _56
REMARK   26  A    between atoms: _56  and  _57
REMARK   27  A    between atoms: _56  and  _59
REMARK   28  A    between atoms: _59  and  _60
REMARK   29  A    between atoms: _65  and  _67
REMARK   30  A    between atoms: _67  and  _68
REMARK   31  A    between atoms: _67  and  _70
REMARK   32  A    between atoms: _70  and  _71
REMARK   33  A    between atoms: _71  and  _72
REMARK   34  A    between atoms: _75  and  _77
REMARK   35  A    between atoms: _77  and  _78
REMARK   36  A    between atoms: _77  and  _80
REMARK   37  A    between atoms: _80  and  _81
REMARK   38  A    between atoms: _84  and  _86
REMARK   39  A    between atoms: _86  and  _87
REMARK   40  A    between atoms: _86  and  _89
REMARK   41  A    between atoms: _89  and  _90
REMARK   42  A    between atoms: _90  and  _91
REMARK   43  A    between atoms: _91  and  _92
REMARK   44  A    between atoms: _101  and  _103
REMARK   45  A    between atoms: _103  and  _104
REMARK   46  A    between atoms: _103  and  _106
REMARK   47  A    between atoms: _106  and  _107
REMARK   48  A    between atoms: _110  and  _112
REMARK   49  A    between atoms: _112  and  _113
REMARK   50  A    between atoms: _112  and  _115
REMARK   51  A    between atoms: _115  and  _116
REMARK   52  A    between atoms: _119  and  _121
REMARK   53  A    between atoms: _121  and  _122
REMARK   54  A    between atoms: _124  and  _126
REMARK   55  A    between atoms: _126  and  _127
REMARK   56  A    between atoms: _126  and  _129
REMARK   57  A    between atoms: _129  and  _130
REMARK   58  A    between atoms: _130  and  _131
REMARK   59  A    between atoms: _134  and  _136
REMARK   60  A    between atoms: _136  and  _137
REMARK   61  A    between atoms: _136  and  _139
REMARK   62  A    between atoms: _139  and  _140
REMARK   63  A    between atoms: _145  and  _146
REMARK   64  A    between atoms: _148  and  _150
REMARK   65  A    between atoms: _150  and  _151
REMARK   66  A    between atoms: _150  and  _153
REMARK   67  A    between atoms: _153  and  _154
REMARK   68  A    between atoms: _154  and  _155
REMARK   69  A    between atoms: _155  and  _156
REMARK   70  A    between atoms: _156  and  _157
REMARK   71  A    between atoms: _161  and  _163
REMARK   72  A    between atoms: _163  and  _164
REMARK   73  A    between atoms: _163  and  _166
REMARK   74  A    between atoms: _166  and  _167
REMARK   75  A    between atoms: _170  and  _172
REMARK   76  A    between atoms: _172  and  _173
REMARK   77  A    between atoms: _172  and  _175
REMARK   78  A    between atoms: _175  and  _176
REMARK   79  A    between atoms: _181  and  _183
REMARK   80  A    between atoms: _183  and  _184
REMARK   81  A    between atoms: _183  and  _186
REMARK   82  A    between atoms: _186  and  _187
REMARK   83  A    between atoms: _190  and  _192
REMARK   84  A    between atoms: _192  and  _193
REMARK   85  A    between atoms: _192  and  _195
REMARK   86  A    between atoms: _195  and  _196
REMARK   87  A    between atoms: _202  and  _204
REMARK   88  A    between atoms: _204  and  _205
REMARK   89  A    between atoms: _207  and  _209
REMARK   90  A    between atoms: _209  and  _210
REMARK   91  A    between atoms: _209  and  _212
REMARK   92  A    between atoms: _212  and  _213
REMARK   93  A    between atoms: _218  and  _219
REMARK   94  A    between atoms: _221  and  _223
REMARK   95  A    between atoms: _223  and  _224
REMARK   96  A    between atoms: _223  and  _226
REMARK   97  A    between atoms: _226  and  _227
REMARK   98  A    between atoms: _227  and  _228
REMARK   99  A    between atoms: _228  and  _229
REMARK  100  A    between atoms: _238  and  _240
REMARK  101  A    between atoms: _240  and  _241
REMARK  102  A    between atoms: _243  and  _245
REMARK  103  A    between atoms: _245  and  _246
REMARK  104  A    between atoms: _248  and  _250
REMARK  105  A    between atoms: _250  and  _251
REMARK  106  A    between atoms: _250  and  _253
REMARK  107  A    between atoms: _253  and  _254
REMARK  108  A    between atoms: _257  and  _259
REMARK  109  A    between atoms: _259  and  _260
REMARK  110  A    between atoms: _259  and  _262
REMARK  111  A    between atoms: _262  and  _263
REMARK  112  A    between atoms: _266  and  _268
REMARK  113  A    between atoms: _268  and  _269
REMARK  114  A    between atoms: _268  and  _271
REMARK  115  A    between atoms: _271  and  _272
REMARK  116  A    between atoms: _275  and  _277
REMARK  117  A    between atoms: _277  and  _278
REMARK  118  A    between atoms: _277  and  _280
REMARK  119  A    between atoms: _280  and  _281
REMARK  120  A    between atoms: _286  and  _287
REMARK  121  A    between atoms: _289  and  _291
REMARK  122  A    between atoms: _291  and  _292
REMARK  123  A    between atoms: _291  and  _294
REMARK  124  A    between atoms: _294  and  _295
REMARK  125  A    between atoms: _297  and  _299
REMARK  126  A    between atoms: _299  and  _300
REMARK  127  A    between atoms: _299  and  _302
REMARK  128  A    between atoms: _306  and  _307
REMARK  129  A    between atoms: _312  and  _314
REMARK  130  A    between atoms: _314  and  _315
REMARK  131  A    between atoms: _318  and  _320
REMARK  132  A    between atoms: _320  and  _321
REMARK  133  A    between atoms: _324  and  _326
REMARK  134  A    between atoms: _326  and  _327
REMARK  135  A    between atoms: _326  and  _329
REMARK  136  A    between atoms: _329  and  _330
REMARK  137  A    between atoms: _330  and  _331
REMARK  138  A    between atoms: _334  and  _336
REMARK  139  A    between atoms: _336  and  _337
REMARK  140  A    between atoms: _336  and  _339
REMARK  141  A    between atoms: _339  and  _340
REMARK  142  A    between atoms: _346  and  _347
REMARK  143  A    between atoms: _352  and  _354
REMARK  144  A    between atoms: _354  and  _355
REMARK  145  A    between atoms: _354  and  _357
REMARK  146  A    between atoms: _360  and  _362
REMARK  147  A    between atoms: _362  and  _363
REMARK  148  A    between atoms: _362  and  _365
REMARK  149  A    between atoms: _365  and  _366
REMARK  150  A    between atoms: _368  and  _370
REMARK  151  A    between atoms: _370  and  _371
REMARK  152  A    between atoms: _370  and  _373
REMARK  153  A    between atoms: _376  and  _378
REMARK  154  A    between atoms: _378  and  _379
REMARK  155  A    between atoms: _378  and  _381
REMARK  156  A    between atoms: _384  and  _386
REMARK  157  A    between atoms: _386  and  _387
REMARK  158  A    between atoms: _386  and  _389
REMARK  159  A    between atoms: _389  and  _390
REMARK  160  A    between atoms: _393  and  _395
REMARK  161  A    between atoms: _395  and  _396
REMARK  162  A    between atoms: _395  and  _398
REMARK  163  A    between atoms: _398  and  _399
REMARK  164  A    between atoms: _399  and  _400
REMARK  165  A    between atoms: _405  and  _407
REMARK  166  A    between atoms: _407  and  _408
REMARK  167  A    between atoms: _412  and  _413
REMARK  168  A    between atoms: _418  and  _420
REMARK  169  A    between atoms: _420  and  _421
REMARK  170  A    between atoms: _420  and  _423
REMARK  171  A    between atoms: _423  and  _424
REMARK  172  A    between atoms: _427  and  _429
REMARK  173  A    between atoms: _429  and  _430
REMARK  174  A    between atoms: _429  and  _432
REMARK  175  A    between atoms: _432  and  _433
REMARK  176  A    between atoms: _436  and  _438
REMARK  177  A    between atoms: _438  and  _439
REMARK  178  A    between atoms: _438  and  _441
REMARK  179  A    between atoms: _441  and  _442
REMARK  180  A    between atoms: _445  and  _447
REMARK  181  A    between atoms: _447  and  _448
REMARK  182  A    between atoms: _447  and  _450
REMARK  183  A    between atoms: _450  and  _451
REMARK  184  A    between atoms: _451  and  _452
REMARK  185  A    between atoms: _452  and  _453
REMARK  186  A    between atoms: _463  and  _464
REMARK  187  A    between atoms: _469  and  _471
REMARK  188  A    between atoms: _471  and  _472
REMARK  189  A    between atoms: _471  and  _474
REMARK  190  A    between atoms: _474  and  _475
REMARK  191  A    between atoms: _478  and  _480
REMARK  192  A    between atoms: _480  and  _481
REMARK  193  A    between atoms: _480  and  _483
REMARK  194  A    between atoms: _483  and  _484
REMARK  195  A    between atoms: _487  and  _489
REMARK  196  A    between atoms: _489  and  _490
REMARK  197  A    between atoms: _489  and  _492
REMARK  198  A    between atoms: _492  and  _493
REMARK  199  A    between atoms: _497  and  _498
REMARK  200  A    between atoms: _503  and  _505
REMARK  201  A    between atoms: _505  and  _506
REMARK  202  A    between atoms: _505  and  _508
REMARK  203  A    between atoms: _508  and  _509
REMARK  204  A    between atoms: _512  and  _514
REMARK  205  A    between atoms: _514  and  _515
REMARK  206  A    between atoms: _514  and  _517
REMARK  207  A    between atoms: _517  and  _518
REMARK  208  A    between atoms: _518  and  _519
REMARK  209  A    between atoms: _519  and  _520
REMARK  210  A    between atoms: _529  and  _531
REMARK  211  A    between atoms: _531  and  _532
REMARK  212  A    between atoms: _531  and  _534
REMARK  213  A    between atoms: _537  and  _539
REMARK  214  A    between atoms: _539  and  _540
REMARK  215  A    between atoms: _539  and  _542
REMARK  216  A    between atoms: _542  and  _543
REMARK  217  A    between atoms: _546  and  _548
REMARK  218  A    between atoms: _548  and  _549
REMARK  219  A    between atoms: _548  and  _551
REMARK  220  A    between atoms: _551  and  _552
REMARK  221  A    between atoms: _552  and  _553
REMARK  222  A    between atoms: _558  and  _560
REMARK  223  A    between atoms: _560  and  _561
REMARK  224  A    between atoms: _563  and  _565
REMARK  225  A    between atoms: _565  and  _566
REMARK  226  A    between atoms: _565  and  _568
REMARK  227  A    between atoms: _568  and  _569
REMARK  228  A    between atoms: _572  and  _574
REMARK  229  A    between atoms: _574  and  _575
REMARK  230  A    between atoms: _574  and  _577
REMARK  231  A    between atoms: _577  and  _578
REMARK  232  A    between atoms: _580  and  _582
REMARK  233  A    between atoms: _582  and  _583
REMARK  234  A    between atoms: _582  and  _585
REMARK  235  A    between atoms: _585  and  _586
REMARK  236  A    between atoms: _589  and  _591
REMARK  237  A    between atoms: _591  and  _592
REMARK  238  A    between atoms: _591  and  _594
REMARK  239  A    between atoms: _594  and  _595
REMARK  240  A    between atoms: _595  and  _596
REMARK  241  A    between atoms: _599  and  _601
REMARK  242  A    between atoms: _601  and  _602
REMARK  243  A    between atoms: _601  and  _604
REMARK  244  A    between atoms: _604  and  _605
REMARK  245  A    between atoms: _610  and  _612
REMARK  246  A    between atoms: _612  and  _613
REMARK  247  A    between atoms: _612  and  _615
REMARK  248  A    between atoms: _615  and  _616
REMARK  249  A    between atoms: _619  and  _621
REMARK  250  A    between atoms: _621  and  _622
REMARK  251  A    between atoms: _625  and  _627
REMARK  252  A    between atoms: _627  and  _628
REMARK  253  A    between atoms: _627  and  _630
REMARK  254  A    between atoms: _630  and  _631
REMARK  255  A    between atoms: _637  and  _639
REMARK  256  A    between atoms: _639  and  _640
REMARK  257  A    between atoms: _642  and  _644
REMARK  258  A    between atoms: _644  and  _645
REMARK  259  A    between atoms: _644  and  _647
REMARK  260  A    between atoms: _647  and  _648
REMARK  261  A    between atoms: _650  and  _652
REMARK  262  A    between atoms: _652  and  _653
REMARK                            x       y       z     vdW  Elec       q    Type
REMARK                         _______ _______ _______ _____ _____    ______ ____
ROOT
ATOM      1  O   HOH     1      13.345  -8.020  43.731  0.00  0.00    +0.000 OA
ENDROOT
TORSDOF 0
REMARK  Name = ../refined-set-2016/2gvj/2gvj_pocket.pdb
REMARK  262 active torsions:
REMARK  status: ('A' for Active; 'I' for Inactive)
REMARK    1  A    between atoms: _1  and  _3
REMARK    2  A    between atoms: _3  and  _4
REMARK    3  A    between atoms: _3  and  _6
REMARK    4  A    between atoms: _6  and  _7
REMARK    5  A    between atoms: _10  and  _12
REMARK    6  A    between atoms: _12  and  _13
REMARK    7  A    between atoms: _12  and  _15
REMARK    8  A    between atoms: _15  and  _16
REMARK    9  A    between atoms: _19  and  _21
REMARK   10  A    between atoms: _21  and  _22
REMARK   11  A    between atoms: _21  and  _24
REMARK   12  A    between atoms: _24  and  _25
REMARK   13  A    between atoms: _27  and  _29
REMARK   14  A    between atoms: _29  and  _30
REMARK   15  A    between atoms: _29  and  _32
REMARK   16  A    between atoms: _32  and  _33
REMARK   17  A    between atoms: _38  and  _39
REMARK   18  A    between atoms: _41  and  _43
REMARK   19  A    between atoms: _43  and  _44
REMARK   20  A    between atoms: _43  and  _46
REMARK   21  A    between atoms: _46  and  _47
REMARK   22  A    between atoms: _47  and  _48
REMARK   23  A    between atoms: _48  and  _49
REMARK   24  A    between atoms: _49  and  _50
REMARK   25  A    between atoms: _54  and  _56
REMARK   26  A    between atoms: _56  and  _57
REMARK   27  A    between atoms: _56  and  _59
REMARK   28  A    between atoms: _59  and  _60
REMARK   29  A    between atoms: _65  and  _67
REMARK   30  A    between atoms: _67  and  _68
REMARK   31  A    between atoms: _67  and  _70
REMARK   32  A    between atoms: _70  and  _71
REMARK   33  A    between atoms: _71  and  _72
REMARK   34  A    between atoms: _75  and  _77
REMARK   35  A    between atoms: _77  and  _78
REMARK   36  A    between atoms: _77  and  _80
REMARK   37  A    between atoms: _80  and  _81
REMARK   38  A    between atoms: _84  and  _86
REMARK   39  A    between atoms: _86  and  _87
REMARK   40  A    between atoms: _86  and  _89
REMARK   41  A    between atoms: _89  and  _90
REMARK   42  A    between atoms: _90  and  _91
REMARK   43  A    between atoms: _91  and  _92
REMARK   44  A    between atoms: _101  and  _103
REMARK   45  A    between atoms: _103  and  _104
REMARK   46  A    between atoms: _103  and  _106
REMARK   47  A    between atoms: _106  and  _107
REMARK   48  A    between atoms: _110  and  _112
REMARK   49  A    between atoms: _112  and  _113
REMARK   50  A    between atoms: _112  and  _115
REMARK   51  A    between atoms: _115  and  _116
REMARK   52  A    between atoms: _119  and  _121
REMARK   53  A    between atoms: _121  and  _122
REMARK   54  A    between atoms: _124  and  _126
REMARK   55  A    between atoms: _126  and  _127
REMARK   56  A    between atoms: _126  and  _129
REMARK   57  A    between atoms: _129  and  _130
REMARK   58  A    between atoms: _130  and  _131
REMARK   59  A    between atoms: _134  and  _136
REMARK   60  A    between atoms: _136  and  _137
REMARK   61  A    between atoms: _136  and  _139
REMARK   62  A    between atoms: _139  and  _140
REMARK   63  A    between atoms: _145  and  _146
REMARK   64  A    between atoms: _148  and  _150
REMARK   65  A    between atoms: _150  and  _151
REMARK   66  A    between atoms: _150  and  _153
REMARK   67  A    between atoms: _153  and  _154
REMARK   68  A    between atoms: _154  and  _155
REMARK   69  A    between atoms: _155  and  _156
REMARK   70  A    between atoms: _156  and  _157
REMARK   71  A    between atoms: _161  and  _163
REMARK   72  A    between atoms: _163  and  _164
REMARK   73  A    between atoms: _163  and  _166
REMARK   74  A    between atoms: _166  and  _167
REMARK   75  A    between atoms: _170  and  _172
REMARK   76  A    between atoms: _172  and  _173
REMARK   77  A    between atoms: _172  and  _175
REMARK   78  A    between atoms: _175  and  _176
REMARK   79  A    between atoms: _181  and  _183
REMARK   80  A    between atoms: _183  and  _184
REMARK   81  A    between atoms: _183  and  _186
REMARK   82  A    between atoms: _186  and  _187
REMARK   83  A    between atoms: _190  and  _192
REMARK   84  A    between atoms: _192  and  _193
REMARK   85  A    between atoms: _192  and  _195
REMARK   86  A    between atoms: _195  and  _196
REMARK   87  A    between atoms: _202  and  _204
REMARK   88  A    between atoms: _204  and  _205
REMARK   89  A    between atoms: _207  and  _209
REMARK   90  A    between atoms: _209  and  _210
REMARK   91  A    between atoms: _209  and  _212
REMARK   92  A    between atoms: _212  and  _213
REMARK   93  A    between atoms: _218  and  _219
REMARK   94  A    between atoms: _221  and  _223
REMARK   95  A    between atoms: _223  and  _224
REMARK   96  A    between atoms: _223  and  _226
REMARK   97  A    between atoms: _226  and  _227
REMARK   98  A    between atoms: _227  and  _228
REMARK   99  A    between atoms: _228  and  _229
REMARK  100  A    between atoms: _238  and  _240
REMARK  101  A    between atoms: _240  and  _241
REMARK  102  A    between atoms: _243  and  _245
REMARK  103  A    between atoms: _245  and  _246
REMARK  104  A    between atoms: _248  and  _250
REMARK  105  A    between atoms: _250  and  _251
REMARK  106  A    between atoms: _250  and  _253
REMARK  107  A    between atoms: _253  and  _254
REMARK  108  A    between atoms: _257  and  _259
REMARK  109  A    between atoms: _259  and  _260
REMARK  110  A    between atoms: _259  and  _262
REMARK  111  A    between atoms: _262  and  _263
REMARK  112  A    between atoms: _266  and  _268
REMARK  113  A    between atoms: _268  and  _269
REMARK  114  A    between atoms: _268  and  _271
REMARK  115  A    between atoms: _271  and  _272
REMARK  116  A    between atoms: _275  and  _277
REMARK  117  A    between atoms: _277  and  _278
REMARK  118  A    between atoms: _277  and  _280
REMARK  119  A    between atoms: _280  and  _281
REMARK  120  A    between atoms: _286  and  _287
REMARK  121  A    between atoms: _289  and  _291
REMARK  122  A    between atoms: _291  and  _292
REMARK  123  A    between atoms: _291  and  _294
REMARK  124  A    between atoms: _294  and  _295
REMARK  125  A    between atoms: _297  and  _299
REMARK  126  A    between atoms: _299  and  _300
REMARK  127  A    between atoms: _299  and  _302
REMARK  128  A    between atoms: _306  and  _307
REMARK  129  A    between atoms: _312  and  _314
REMARK  130  A    between atoms: _314  and  _315
REMARK  131  A    between atoms: _318  and  _320
REMARK  132  A    between atoms: _320  and  _321
REMARK  133  A    between atoms: _324  and  _326
REMARK  134  A    between atoms: _326  and  _327
REMARK  135  A    between atoms: _326  and  _329
REMARK  136  A    between atoms: _329  and  _330
REMARK  137  A    between atoms: _330  and  _331
REMARK  138  A    between atoms: _334  and  _336
REMARK  139  A    between atoms: _336  and  _337
REMARK  140  A    between atoms: _336  and  _339
REMARK  141  A    between atoms: _339  and  _340
REMARK  142  A    between atoms: _346  and  _347
REMARK  143  A    between atoms: _352  and  _354
REMARK  144  A    between atoms: _354  and  _355
REMARK  145  A    between atoms: _354  and  _357
REMARK  146  A    between atoms: _360  and  _362
REMARK  147  A    between atoms: _362  and  _363
REMARK  148  A    between atoms: _362  and  _365
REMARK  149  A    between atoms: _365  and  _366
REMARK  150  A    between atoms: _368  and  _370
REMARK  151  A    between atoms: _370  and  _371
REMARK  152  A    between atoms: _370  and  _373
REMARK  153  A    between atoms: _376  and  _378
REMARK  154  A    between atoms: _378  and  _379
REMARK  155  A    between atoms: _378  and  _381
REMARK  156  A    between atoms: _384  and  _386
REMARK  157  A    between atoms: _386  and  _387
REMARK  158  A    between atoms: _386  and  _389
REMARK  159  A    between atoms: _389  and  _390
REMARK  160  A    between atoms: _393  and  _395
REMARK  161  A    between atoms: _395  and  _396
REMARK  162  A    between atoms: _395  and  _398
REMARK  163  A    between atoms: _398  and  _399
REMARK  164  A    between atoms: _399  and  _400
REMARK  165  A    between atoms: _405  and  _407
REMARK  166  A    between atoms: _407  and  _408
REMARK  167  A    between atoms: _412  and  _413
REMARK  168  A    between atoms: _418  and  _420
REMARK  169  A    between atoms: _420  and  _421
REMARK  170  A    between atoms: _420  and  _423
REMARK  171  A    between atoms: _423  and  _424
REMARK  172  A    between atoms: _427  and  _429
REMARK  173  A    between atoms: _429  and  _430
REMARK  174  A    between atoms: _429  and  _432
REMARK  175  A    between atoms: _432  and  _433
REMARK  176  A    between atoms: _436  and  _438
REMARK  177  A    between atoms: _438  and  _439
REMARK  178  A    between atoms: _438  and  _441
REMARK  179  A    between atoms: _441  and  _442
REMARK  180  A    between atoms: _445  and  _447
REMARK  181  A    between atoms: _447  and  _448
REMARK  182  A    between atoms: _447  and  _450
REMARK  183  A    between atoms: _450  and  _451
REMARK  184  A    between atoms: _451  and  _452
REMARK  185  A    between atoms: _452  and  _453
REMARK  186  A    between atoms: _463  and  _464
REMARK  187  A    between atoms: _469  and  _471
REMARK  188  A    between atoms: _471  and  _472
REMARK  189  A    between atoms: _471  and  _474
REMARK  190  A    between atoms: _474  and  _475
REMARK  191  A    between atoms: _478  and  _480
REMARK  192  A    between atoms: _480  and  _481
REMARK  193  A    between atoms: _480  and  _483
REMARK  194  A    between atoms: _483  and  _484
REMARK  195  A    between atoms: _487  and  _489
REMARK  196  A    between atoms: _489  and  _490
REMARK  197  A    between atoms: _489  and  _492
REMARK  198  A    between atoms: _492  and  _493
REMARK  199  A    between atoms: _497  and  _498
REMARK  200  A    between atoms: _503  and  _505
REMARK  201  A    between atoms: _505  and  _506
REMARK  202  A    between atoms: _505  and  _508
REMARK  203  A    between atoms: _508  and  _509
REMARK  204  A    between atoms: _512  and  _514
REMARK  205  A    between atoms: _514  and  _515
REMARK  206  A    between atoms: _514  and  _517
REMARK  207  A    between atoms: _517  and  _518
REMARK  208  A    between atoms: _518  and  _519
REMARK  209  A    between atoms: _519  and  _520
REMARK  210  A    between atoms: _529  and  _531
REMARK  211  A    between atoms: _531  and  _532
REMARK  212  A    between atoms: _531  and  _534
REMARK  213  A    between atoms: _537  and  _539
REMARK  214  A    between atoms: _539  and  _540
REMARK  215  A    between atoms: _539  and  _542
REMARK  216  A    between atoms: _542  and  _543
REMARK  217  A    between atoms: _546  and  _548
REMARK  218  A    between atoms: _548  and  _549
REMARK  219  A    between atoms: _548  and  _551
REMARK  220  A    between atoms: _551  and  _552
REMARK  221  A    between atoms: _552  and  _553
REMARK  222  A    between atoms: _558  and  _560
REMARK  223  A    between atoms: _560  and  _561
REMARK  224  A    between atoms: _563  and  _565
REMARK  225  A    between atoms: _565  and  _566
REMARK  226  A    between atoms: _565  and  _568
REMARK  227  A    between atoms: _568  and  _569
REMARK  228  A    between atoms: _572  and  _574
REMARK  229  A    between atoms: _574  and  _575
REMARK  230  A    between atoms: _574  and  _577
REMARK  231  A    between atoms: _577  and  _578
REMARK  232  A    between atoms: _580  and  _582
REMARK  233  A    between atoms: _582  and  _583
REMARK  234  A    between atoms: _582  and  _585
REMARK  235  A    between atoms: _585  and  _586
REMARK  236  A    between atoms: _589  and  _591
REMARK  237  A    between atoms: _591  and  _592
REMARK  238  A    between atoms: _591  and  _594
REMARK  239  A    between atoms: _594  and  _595
REMARK  240  A    between atoms: _595  and  _596
REMARK  241  A    between atoms: _599  and  _601
REMARK  242  A    between atoms: _601  and  _602
REMARK  243  A    between atoms: _601  and  _604
REMARK  244  A    between atoms: _604  and  _605
REMARK  245  A    between atoms: _610  and  _612
REMARK  246  A    between atoms: _612  and  _613
REMARK  247  A    between atoms: _612  and  _615
REMARK  248  A    between atoms: _615  and  _616
REMARK  249  A    between atoms: _619  and  _621
REMARK  250  A    between atoms: _621  and  _622
REMARK  251  A    between atoms: _625  and  _627
REMARK  252  A    between atoms: _627  and  _628
REMARK  253  A    between atoms: _627  and  _630
REMARK  254  A    between atoms: _630  and  _631
REMARK  255  A    between atoms: _637  and  _639
REMARK  256  A    between atoms: _639  and  _640
REMARK  257  A    between atoms: _642  and  _644
REMARK  258  A    between atoms: _644  and  _645
REMARK  259  A    between atoms: _644  and  _647
REMARK  260  A    between atoms: _647  and  _648
REMARK  261  A    between atoms: _650  and  _652
REMARK  262  A    between atoms: _652  and  _653
REMARK                            x       y       z     vdW  Elec       q    Type
REMARK                         _______ _______ _______ _____ _____    ______ ____
ROOT
ATOM      1  O   HOH     1       4.125 -10.796  33.843  0.00  0.00    +0.000 OA
ENDROOT
TORSDOF 0
REMARK  Name = ../refined-set-2016/2gvj/2gvj_pocket.pdb
REMARK  262 active torsions:
REMARK  status: ('A' for Active; 'I' for Inactive)
REMARK    1  A    between atoms: _1  and  _3
REMARK    2  A    between atoms: _3  and  _4
REMARK    3  A    between atoms: _3  and  _6
REMARK    4  A    between atoms: _6  and  _7
REMARK    5  A    between atoms: _10  and  _12
REMARK    6  A    between atoms: _12  and  _13
REMARK    7  A    between atoms: _12  and  _15
REMARK    8  A    between atoms: _15  and  _16
REMARK    9  A    between atoms: _19  and  _21
REMARK   10  A    between atoms: _21  and  _22
REMARK   11  A    between atoms: _21  and  _24
REMARK   12  A    between atoms: _24  and  _25
REMARK   13  A    between atoms: _27  and  _29
REMARK   14  A    between atoms: _29  and  _30
REMARK   15  A    between atoms: _29  and  _32
REMARK   16  A    between atoms: _32  and  _33
REMARK   17  A    between atoms: _38  and  _39
REMARK   18  A    between atoms: _41  and  _43
REMARK   19  A    between atoms: _43  and  _44
REMARK   20  A    between atoms: _43  and  _46
REMARK   21  A    between atoms: _46  and  _47
REMARK   22  A    between atoms: _47  and  _48
REMARK   23  A    between atoms: _48  and  _49
REMARK   24  A    between atoms: _49  and  _50
REMARK   25  A    between atoms: _54  and  _56
REMARK   26  A    between atoms: _56  and  _57
REMARK   27  A    between atoms: _56  and  _59
REMARK   28  A    between atoms: _59  and  _60
REMARK   29  A    between atoms: _65  and  _67
REMARK   30  A    between atoms: _67  and  _68
REMARK   31  A    between atoms: _67  and  _70
REMARK   32  A    between atoms: _70  and  _71
REMARK   33  A    between atoms: _71  and  _72
REMARK   34  A    between atoms: _75  and  _77
REMARK   35  A    between atoms: _77  and  _78
REMARK   36  A    between atoms: _77  and  _80
REMARK   37  A    between atoms: _80  and  _81
REMARK   38  A    between atoms: _84  and  _86
REMARK   39  A    between atoms: _86  and  _87
REMARK   40  A    between atoms: _86  and  _89
REMARK   41  A    between atoms: _89  and  _90
REMARK   42  A    between atoms: _90  and  _91
REMARK   43  A    between atoms: _91  and  _92
REMARK   44  A    between atoms: _101  and  _103
REMARK   45  A    between atoms: _103  and  _104
REMARK   46  A    between atoms: _103  and  _106
REMARK   47  A    between atoms: _106  and  _107
REMARK   48  A    between atoms: _110  and  _112
REMARK   49  A    between atoms: _112  and  _113
REMARK   50  A    between atoms: _112  and  _115
REMARK   51  A    between atoms: _115  and  _116
REMARK   52  A    between atoms: _119  and  _121
REMARK   53  A    between atoms: _121  and  _122
REMARK   54  A    between atoms: _124  and  _126
REMARK   55  A    between atoms: _126  and  _127
REMARK   56  A    between atoms: _126  and  _129
REMARK   57  A    between atoms: _129  and  _130
REMARK   58  A    between atoms: _130  and  _131
REMARK   59  A    between atoms: _134  and  _136
REMARK   60  A    between atoms: _136  and  _137
REMARK   61  A    between atoms: _136  and  _139
REMARK   62  A    between atoms: _139  and  _140
REMARK   63  A    between atoms: _145  and  _146
REMARK   64  A    between atoms: _148  and  _150
REMARK   65  A    between atoms: _150  and  _151
REMARK   66  A    between atoms: _150  and  _153
REMARK   67  A    between atoms: _153  and  _154
REMARK   68  A    between atoms: _154  and  _155
REMARK   69  A    between atoms: _155  and  _156
REMARK   70  A    between atoms: _156  and  _157
REMARK   71  A    between atoms: _161  and  _163
REMARK   72  A    between atoms: _163  and  _164
REMARK   73  A    between atoms: _163  and  _166
REMARK   74  A    between atoms: _166  and  _167
REMARK   75  A    between atoms: _170  and  _172
REMARK   76  A    between atoms: _172  and  _173
REMARK   77  A    between atoms: _172  and  _175
REMARK   78  A    between atoms: _175  and  _176
REMARK   79  A    between atoms: _181  and  _183
REMARK   80  A    between atoms: _183  and  _184
REMARK   81  A    between atoms: _183  and  _186
REMARK   82  A    between atoms: _186  and  _187
REMARK   83  A    between atoms: _190  and  _192
REMARK   84  A    between atoms: _192  and  _193
REMARK   85  A    between atoms: _192  and  _195
REMARK   86  A    between atoms: _195  and  _196
REMARK   87  A    between atoms: _202  and  _204
REMARK   88  A    between atoms: _204  and  _205
REMARK   89  A    between atoms: _207  and  _209
REMARK   90  A    between atoms: _209  and  _210
REMARK   91  A    between atoms: _209  and  _212
REMARK   92  A    between atoms: _212  and  _213
REMARK   93  A    between atoms: _218  and  _219
REMARK   94  A    between atoms: _221  and  _223
REMARK   95  A    between atoms: _223  and  _224
REMARK   96  A    between atoms: _223  and  _226
REMARK   97  A    between atoms: _226  and  _227
REMARK   98  A    between atoms: _227  and  _228
REMARK   99  A    between atoms: _228  and  _229
REMARK  100  A    between atoms: _238  and  _240
REMARK  101  A    between atoms: _240  and  _241
REMARK  102  A    between atoms: _243  and  _245
REMARK  103  A    between atoms: _245  and  _246
REMARK  104  A    between atoms: _248  and  _250
REMARK  105  A    between atoms: _250  and  _251
REMARK  106  A    between atoms: _250  and  _253
REMARK  107  A    between atoms: _253  and  _254
REMARK  108  A    between atoms: _257  and  _259
REMARK  109  A    between atoms: _259  and  _260
REMARK  110  A    between atoms: _259  and  _262
REMARK  111  A    between atoms: _262  and  _263
REMARK  112  A    between atoms: _266  and  _268
REMARK  113  A    between atoms: _268  and  _269
REMARK  114  A    between atoms: _268  and  _271
REMARK  115  A    between atoms: _271  and  _272
REMARK  116  A    between atoms: _275  and  _277
REMARK  117  A    between atoms: _277  and  _278
REMARK  118  A    between atoms: _277  and  _280
REMARK  119  A    between atoms: _280  and  _281
REMARK  120  A    between atoms: _286  and  _287
REMARK  121  A    between atoms: _289  and  _291
REMARK  122  A    between atoms: _291  and  _292
REMARK  123  A    between atoms: _291  and  _294
REMARK  124  A    between atoms: _294  and  _295
REMARK  125  A    between atoms: _297  and  _299
REMARK  126  A    between atoms: _299  and  _300
REMARK  127  A    between atoms: _299  and  _302
REMARK  128  A    between atoms: _306  and  _307
REMARK  129  A    between atoms: _312  and  _314
REMARK  130  A    between atoms: _314  and  _315
REMARK  131  A    between atoms: _318  and  _320
REMARK  132  A    between atoms: _320  and  _321
REMARK  133  A    between atoms: _324  and  _326
REMARK  134  A    between atoms: _326  and  _327
REMARK  135  A    between atoms: _326  and  _329
REMARK  136  A    between atoms: _329  and  _330
REMARK  137  A    between atoms: _330  and  _331
REMARK  138  A    between atoms: _334  and  _336
REMARK  139  A    between atoms: _336  and  _337
REMARK  140  A    between atoms: _336  and  _339
REMARK  141  A    between atoms: _339  and  _340
REMARK  142  A    between atoms: _346  and  _347
REMARK  143  A    between atoms: _352  and  _354
REMARK  144  A    between atoms: _354  and  _355
REMARK  145  A    between atoms: _354  and  _357
REMARK  146  A    between atoms: _360  and  _362
REMARK  147  A    between atoms: _362  and  _363
REMARK  148  A    between atoms: _362  and  _365
REMARK  149  A    between atoms: _365  and  _366
REMARK  150  A    between atoms: _368  and  _370
REMARK  151  A    between atoms: _370  and  _371
REMARK  152  A    between atoms: _370  and  _373
REMARK  153  A    between atoms: _376  and  _378
REMARK  154  A    between atoms: _378  and  _379
REMARK  155  A    between atoms: _378  and  _381
REMARK  156  A    between atoms: _384  and  _386
REMARK  157  A    between atoms: _386  and  _387
REMARK  158  A    between atoms: _386  and  _389
REMARK  159  A    between atoms: _389  and  _390
REMARK  160  A    between atoms: _393  and  _395
REMARK  161  A    between atoms: _395  and  _396
REMARK  162  A    between atoms: _395  and  _398
REMARK  163  A    between atoms: _398  and  _399
REMARK  164  A    between atoms: _399  and  _400
REMARK  165  A    between atoms: _405  and  _407
REMARK  166  A    between atoms: _407  and  _408
REMARK  167  A    between atoms: _412  and  _413
REMARK  168  A    between atoms: _418  and  _420
REMARK  169  A    between atoms: _420  and  _421
REMARK  170  A    between atoms: _420  and  _423
REMARK  171  A    between atoms: _423  and  _424
REMARK  172  A    between atoms: _427  and  _429
REMARK  173  A    between atoms: _429  and  _430
REMARK  174  A    between atoms: _429  and  _432
REMARK  175  A    between atoms: _432  and  _433
REMARK  176  A    between atoms: _436  and  _438
REMARK  177  A    between atoms: _438  and  _439
REMARK  178  A    between atoms: _438  and  _441
REMARK  179  A    between atoms: _441  and  _442
REMARK  180  A    between atoms: _445  and  _447
REMARK  181  A    between atoms: _447  and  _448
REMARK  182  A    between atoms: _447  and  _450
REMARK  183  A    between atoms: _450  and  _451
REMARK  184  A    between atoms: _451  and  _452
REMARK  185  A    between atoms: _452  and  _453
REMARK  186  A    between atoms: _463  and  _464
REMARK  187  A    between atoms: _469  and  _471
REMARK  188  A    between atoms: _471  and  _472
REMARK  189  A    between atoms: _471  and  _474
REMARK  190  A    between atoms: _474  and  _475
REMARK  191  A    between atoms: _478  and  _480
REMARK  192  A    between atoms: _480  and  _481
REMARK  193  A    between atoms: _480  and  _483
REMARK  194  A    between atoms: _483  and  _484
REMARK  195  A    between atoms: _487  and  _489
REMARK  196  A    between atoms: _489  and  _490
REMARK  197  A    between atoms: _489  and  _492
REMARK  198  A    between atoms: _492  and  _493
REMARK  199  A    between atoms: _497  and  _498
REMARK  200  A    between atoms: _503  and  _505
REMARK  201  A    between atoms: _505  and  _506
REMARK  202  A    between atoms: _505  and  _508
REMARK  203  A    between atoms: _508  and  _509
REMARK  204  A    between atoms: _512  and  _514
REMARK  205  A    between atoms: _514  and  _515
REMARK  206  A    between atoms: _514  and  _517
REMARK  207  A    between atoms: _517  and  _518
REMARK  208  A    between atoms: _518  and  _519
REMARK  209  A    between atoms: _519  and  _520
REMARK  210  A    between atoms: _529  and  _531
REMARK  211  A    between atoms: _531  and  _532
REMARK  212  A    between atoms: _531  and  _534
REMARK  213  A    between atoms: _537  and  _539
REMARK  214  A    between atoms: _539  and  _540
REMARK  215  A    between atoms: _539  and  _542
REMARK  216  A    between atoms: _542  and  _543
REMARK  217  A    between atoms: _546  and  _548
REMARK  218  A    between atoms: _548  and  _549
REMARK  219  A    between atoms: _548  and  _551
REMARK  220  A    between atoms: _551  and  _552
REMARK  221  A    between atoms: _552  and  _553
REMARK  222  A    between atoms: _558  and  _560
REMARK  223  A    between atoms: _560  and  _561
REMARK  224  A    between atoms: _563  and  _565
REMARK  225  A    between atoms: _565  and  _566
REMARK  226  A    between atoms: _565  and  _568
REMARK  227  A    between atoms: _568  and  _569
REMARK  228  A    between atoms: _572  and  _574
REMARK  229  A    between atoms: _574  and  _575
REMARK  230  A    between atoms: _574  and  _577
REMARK  231  A    between atoms: _577  and  _578
REMARK  232  A    between atoms: _580  and  _582
REMARK  233  A    between atoms: _582  and  _583
REMARK  234  A    between atoms: _582  and  _585
REMARK  235  A    between atoms: _585  and  _586
REMARK  236  A    between atoms: _589  and  _591
REMARK  237  A    between atoms: _591  and  _592
REMARK  238  A    between atoms: _591  and  _594
REMARK  239  A    between atoms: _594  and  _595
REMARK  240  A    between atoms: _595  and  _596
REMARK  241  A    between atoms: _599  and  _601
REMARK  242  A    between atoms: _601  and  _602
REMARK  243  A    between atoms: _601  and  _604
REMARK  244  A    between atoms: _604  and  _605
REMARK  245  A    between atoms: _610  and  _612
REMARK  246  A    between atoms: _612  and  _613
REMARK  247  A    between atoms: _612  and  _615
REMARK  248  A    between atoms: _615  and  _616
REMARK  249  A    between atoms: _619  and  _621
REMARK  250  A    between atoms: _621  and  _622
REMARK  251  A    between atoms: _625  and  _627
REMARK  252  A    between atoms: _627  and  _628
REMARK  253  A    between atoms: _627  and  _630
REMARK  254  A    between atoms: _630  and  _631
REMARK  255  A    between atoms: _637  and  _639
REMARK  256  A    between atoms: _639  and  _640
REMARK  257  A    between atoms: _642  and  _644
REMARK  258  A    between atoms: _644  and  _645
REMARK  259  A    between atoms: _644  and  _647
REMARK  260  A    between atoms: _647  and  _648
REMARK  261  A    between atoms: _650  and  _652
REMARK  262  A    between atoms: _652  and  _653
REMARK                            x       y       z     vdW  Elec       q    Type
REMARK                         _______ _______ _______ _____ _____    ______ ____
ROOT
ATOM      1  O   HOH     1       9.729   2.000  43.065  0.00  0.00    +0.000 OA
ENDROOT
TORSDOF 0
REMARK  Name = ../refined-set-2016/2gvj/2gvj_pocket.pdb
REMARK  262 active torsions:
REMARK  status: ('A' for Active; 'I' for Inactive)
REMARK    1  A    between atoms: _1  and  _3
REMARK    2  A    between atoms: _3  and  _4
REMARK    3  A    between atoms: _3  and  _6
REMARK    4  A    between atoms: _6  and  _7
REMARK    5  A    between atoms: _10  and  _12
REMARK    6  A    between atoms: _12  and  _13
REMARK    7  A    between atoms: _12  and  _15
REMARK    8  A    between atoms: _15  and  _16
REMARK    9  A    between atoms: _19  and  _21
REMARK   10  A    between atoms: _21  and  _22
REMARK   11  A    between atoms: _21  and  _24
REMARK   12  A    between atoms: _24  and  _25
REMARK   13  A    between atoms: _27  and  _29
REMARK   14  A    between atoms: _29  and  _30
REMARK   15  A    between atoms: _29  and  _32
REMARK   16  A    between atoms: _32  and  _33
REMARK   17  A    between atoms: _38  and  _39
REMARK   18  A    between atoms: _41  and  _43
REMARK   19  A    between atoms: _43  and  _44
REMARK   20  A    between atoms: _43  and  _46
REMARK   21  A    between atoms: _46  and  _47
REMARK   22  A    between atoms: _47  and  _48
REMARK   23  A    between atoms: _48  and  _49
REMARK   24  A    between atoms: _49  and  _50
REMARK   25  A    between atoms: _54  and  _56
REMARK   26  A    between atoms: _56  and  _57
REMARK   27  A    between atoms: _56  and  _59
REMARK   28  A    between atoms: _59  and  _60
REMARK   29  A    between atoms: _65  and  _67
REMARK   30  A    between atoms: _67  and  _68
REMARK   31  A    between atoms: _67  and  _70
REMARK   32  A    between atoms: _70  and  _71
REMARK   33  A    between atoms: _71  and  _72
REMARK   34  A    between atoms: _75  and  _77
REMARK   35  A    between atoms: _77  and  _78
REMARK   36  A    between atoms: _77  and  _80
REMARK   37  A    between atoms: _80  and  _81
REMARK   38  A    between atoms: _84  and  _86
REMARK   39  A    between atoms: _86  and  _87
REMARK   40  A    between atoms: _86  and  _89
REMARK   41  A    between atoms: _89  and  _90
REMARK   42  A    between atoms: _90  and  _91
REMARK   43  A    between atoms: _91  and  _92
REMARK   44  A    between atoms: _101  and  _103
REMARK   45  A    between atoms: _103  and  _104
REMARK   46  A    between atoms: _103  and  _106
REMARK   47  A    between atoms: _106  and  _107
REMARK   48  A    between atoms: _110  and  _112
REMARK   49  A    between atoms: _112  and  _113
REMARK   50  A    between atoms: _112  and  _115
REMARK   51  A    between atoms: _115  and  _116
REMARK   52  A    between atoms: _119  and  _121
REMARK   53  A    between atoms: _121  and  _122
REMARK   54  A    between atoms: _124  and  _126
REMARK   55  A    between atoms: _126  and  _127
REMARK   56  A    between atoms: _126  and  _129
REMARK   57  A    between atoms: _129  and  _130
REMARK   58  A    between atoms: _130  and  _131
REMARK   59  A    between atoms: _134  and  _136
REMARK   60  A    between atoms: _136  and  _137
REMARK   61  A    between atoms: _136  and  _139
REMARK   62  A    between atoms: _139  and  _140
REMARK   63  A    between atoms: _145  and  _146
REMARK   64  A    between atoms: _148  and  _150
REMARK   65  A    between atoms: _150  and  _151
REMARK   66  A    between atoms: _150  and  _153
REMARK   67  A    between atoms: _153  and  _154
REMARK   68  A    between atoms: _154  and  _155
REMARK   69  A    between atoms: _155  and  _156
REMARK   70  A    between atoms: _156  and  _157
REMARK   71  A    between atoms: _161  and  _163
REMARK   72  A    between atoms: _163  and  _164
REMARK   73  A    between atoms: _163  and  _166
REMARK   74  A    between atoms: _166  and  _167
REMARK   75  A    between atoms: _170  and  _172
REMARK   76  A    between atoms: _172  and  _173
REMARK   77  A    between atoms: _172  and  _175
REMARK   78  A    between atoms: _175  and  _176
REMARK   79  A    between atoms: _181  and  _183
REMARK   80  A    between atoms: _183  and  _184
REMARK   81  A    between atoms: _183  and  _186
REMARK   82  A    between atoms: _186  and  _187
REMARK   83  A    between atoms: _190  and  _192
REMARK   84  A    between atoms: _192  and  _193
REMARK   85  A    between atoms: _192  and  _195
REMARK   86  A    between atoms: _195  and  _196
REMARK   87  A    between atoms: _202  and  _204
REMARK   88  A    between atoms: _204  and  _205
REMARK   89  A    between atoms: _207  and  _209
REMARK   90  A    between atoms: _209  and  _210
REMARK   91  A    between atoms: _209  and  _212
REMARK   92  A    between atoms: _212  and  _213
REMARK   93  A    between atoms: _218  and  _219
REMARK   94  A    between atoms: _221  and  _223
REMARK   95  A    between atoms: _223  and  _224
REMARK   96  A    between atoms: _223  and  _226
REMARK   97  A    between atoms: _226  and  _227
REMARK   98  A    between atoms: _227  and  _228
REMARK   99  A    between atoms: _228  and  _229
REMARK  100  A    between atoms: _238  and  _240
REMARK  101  A    between atoms: _240  and  _241
REMARK  102  A    between atoms: _243  and  _245
REMARK  103  A    between atoms: _245  and  _246
REMARK  104  A    between atoms: _248  and  _250
REMARK  105  A    between atoms: _250  and  _251
REMARK  106  A    between atoms: _250  and  _253
REMARK  107  A    between atoms: _253  and  _254
REMARK  108  A    between atoms: _257  and  _259
REMARK  109  A    between atoms: _259  and  _260
REMARK  110  A    between atoms: _259  and  _262
REMARK  111  A    between atoms: _262  and  _263
REMARK  112  A    between atoms: _266  and  _268
REMARK  113  A    between atoms: _268  and  _269
REMARK  114  A    between atoms: _268  and  _271
REMARK  115  A    between atoms: _271  and  _272
REMARK  116  A    between atoms: _275  and  _277
REMARK  117  A    between atoms: _277  and  _278
REMARK  118  A    between atoms: _277  and  _280
REMARK  119  A    between atoms: _280  and  _281
REMARK  120  A    between atoms: _286  and  _287
REMARK  121  A    between atoms: _289  and  _291
REMARK  122  A    between atoms: _291  and  _292
REMARK  123  A    between atoms: _291  and  _294
REMARK  124  A    between atoms: _294  and  _295
REMARK  125  A    between atoms: _297  and  _299
REMARK  126  A    between atoms: _299  and  _300
REMARK  127  A    between atoms: _299  and  _302
REMARK  128  A    between atoms: _306  and  _307
REMARK  129  A    between atoms: _312  and  _314
REMARK  130  A    between atoms: _314  and  _315
REMARK  131  A    between atoms: _318  and  _320
REMARK  132  A    between atoms: _320  and  _321
REMARK  133  A    between atoms: _324  and  _326
REMARK  134  A    between atoms: _326  and  _327
REMARK  135  A    between atoms: _326  and  _329
REMARK  136  A    between atoms: _329  and  _330
REMARK  137  A    between atoms: _330  and  _331
REMARK  138  A    between atoms: _334  and  _336
REMARK  139  A    between atoms: _336  and  _337
REMARK  140  A    between atoms: _336  and  _339
REMARK  141  A    between atoms: _339  and  _340
REMARK  142  A    between atoms: _346  and  _347
REMARK  143  A    between atoms: _352  and  _354
REMARK  144  A    between atoms: _354  and  _355
REMARK  145  A    between atoms: _354  and  _357
REMARK  146  A    between atoms: _360  and  _362
REMARK  147  A    between atoms: _362  and  _363
REMARK  148  A    between atoms: _362  and  _365
REMARK  149  A    between atoms: _365  and  _366
REMARK  150  A    between atoms: _368  and  _370
REMARK  151  A    between atoms: _370  and  _371
REMARK  152  A    between atoms: _370  and  _373
REMARK  153  A    between atoms: _376  and  _378
REMARK  154  A    between atoms: _378  and  _379
REMARK  155  A    between atoms: _378  and  _381
REMARK  156  A    between atoms: _384  and  _386
REMARK  157  A    between atoms: _386  and  _387
REMARK  158  A    between atoms: _386  and  _389
REMARK  159  A    between atoms: _389  and  _390
REMARK  160  A    between atoms: _393  and  _395
REMARK  161  A    between atoms: _395  and  _396
REMARK  162  A    between atoms: _395  and  _398
REMARK  163  A    between atoms: _398  and  _399
REMARK  164  A    between atoms: _399  and  _400
REMARK  165  A    between atoms: _405  and  _407
REMARK  166  A    between atoms: _407  and  _408
REMARK  167  A    between atoms: _412  and  _413
REMARK  168  A    between atoms: _418  and  _420
REMARK  169  A    between atoms: _420  and  _421
REMARK  170  A    between atoms: _420  and  _423
REMARK  171  A    between atoms: _423  and  _424
REMARK  172  A    between atoms: _427  and  _429
REMARK  173  A    between atoms: _429  and  _430
REMARK  174  A    between atoms: _429  and  _432
REMARK  175  A    between atoms: _432  and  _433
REMARK  176  A    between atoms: _436  and  _438
REMARK  177  A    between atoms: _438  and  _439
REMARK  178  A    between atoms: _438  and  _441
REMARK  179  A    between atoms: _441  and  _442
REMARK  180  A    between atoms: _445  and  _447
REMARK  181  A    between atoms: _447  and  _448
REMARK  182  A    between atoms: _447  and  _450
REMARK  183  A    between atoms: _450  and  _451
REMARK  184  A    between atoms: _451  and  _452
REMARK  185  A    between atoms: _452  and  _453
REMARK  186  A    between atoms: _463  and  _464
REMARK  187  A    between atoms: _469  and  _471
REMARK  188  A    between atoms: _471  and  _472
REMARK  189  A    between atoms: _471  and  _474
REMARK  190  A    between atoms: _474  and  _475
REMARK  191  A    between atoms: _478  and  _480
REMARK  192  A    between atoms: _480  and  _481
REMARK  193  A    between atoms: _480  and  _483
REMARK  194  A    between atoms: _483  and  _484
REMARK  195  A    between atoms: _487  and  _489
REMARK  196  A    between atoms: _489  and  _490
REMARK  197  A    between atoms: _489  and  _492
REMARK  198  A    between atoms: _492  and  _493
REMARK  199  A    between atoms: _497  and  _498
REMARK  200  A    between atoms: _503  and  _505
REMARK  201  A    between atoms: _505  and  _506
REMARK  202  A    between atoms: _505  and  _508
REMARK  203  A    between atoms: _508  and  _509
REMARK  204  A    between atoms: _512  and  _514
REMARK  205  A    between atoms: _514  and  _515
REMARK  206  A    between atoms: _514  and  _517
REMARK  207  A    between atoms: _517  and  _518
REMARK  208  A    between atoms: _518  and  _519
REMARK  209  A    between atoms: _519  and  _520
REMARK  210  A    between atoms: _529  and  _531
REMARK  211  A    between atoms: _531  and  _532
REMARK  212  A    between atoms: _531  and  _534
REMARK  213  A    between atoms: _537  and  _539
REMARK  214  A    between atoms: _539  and  _540
REMARK  215  A    between atoms: _539  and  _542
REMARK  216  A    between atoms: _542  and  _543
REMARK  217  A    between atoms: _546  and  _548
REMARK  218  A    between atoms: _548  and  _549
REMARK  219  A    between atoms: _548  and  _551
REMARK  220  A    between atoms: _551  and  _552
REMARK  221  A    between atoms: _552  and  _553
REMARK  222  A    between atoms: _558  and  _560
REMARK  223  A    between atoms: _560  and  _561
REMARK  224  A    between atoms: _563  and  _565
REMARK  225  A    between atoms: _565  and  _566
REMARK  226  A    between atoms: _565  and  _568
REMARK  227  A    between atoms: _568  and  _569
REMARK  228  A    between atoms: _572  and  _574
REMARK  229  A    between atoms: _574  and  _575
REMARK  230  A    between atoms: _574  and  _577
REMARK  231  A    between atoms: _577  and  _578
REMARK  232  A    between atoms: _580  and  _582
REMARK  233  A    between atoms: _582  and  _583
REMARK  234  A    between atoms: _582  and  _585
REMARK  235  A    between atoms: _585  and  _586
REMARK  236  A    between atoms: _589  and  _591
REMARK  237  A    between atoms: _591  and  _592
REMARK  238  A    between atoms: _591  and  _594
REMARK  239  A    between atoms: _594  and  _595
REMARK  240  A    between atoms: _595  and  _596
REMARK  241  A    between atoms: _599  and  _601
REMARK  242  A    between atoms: _601  and  _602
REMARK  243  A    between atoms: _601  and  _604
REMARK  244  A    between atoms: _604  and  _605
REMARK  245  A    between atoms: _610  and  _612
REMARK  246  A    between atoms: _612  and  _613
REMARK  247  A    between atoms: _612  and  _615
REMARK  248  A    between atoms: _615  and  _616
REMARK  249  A    between atoms: _619  and  _621
REMARK  250  A    between atoms: _621  and  _622
REMARK  251  A    between atoms: _625  and  _627
REMARK  252  A    between atoms: _627  and  _628
REMARK  253  A    between atoms: _627  and  _630
REMARK  254  A    between atoms: _630  and  _631
REMARK  255  A    between atoms: _637  and  _639
REMARK  256  A    between atoms: _639  and  _640
REMARK  257  A    between atoms: _642  and  _644
REMARK  258  A    between atoms: _644  and  _645
REMARK  259  A    between atoms: _644  and  _647
REMARK  260  A    between atoms: _647  and  _648
REMARK  261  A    between atoms: _650  and  _652
REMARK  262  A    between atoms: _652  and  _653
REMARK                            x       y       z     vdW  Elec       q    Type
REMARK                         _______ _______ _______ _____ _____    ______ ____
ROOT
ATOM      1  O   HOH     1       8.574 -12.866  43.606  0.00  0.00    +0.000 OA
ENDROOT
TORSDOF 0
REMARK  Name = ../refined-set-2016/2gvj/2gvj_pocket.pdb
REMARK  262 active torsions:
REMARK  status: ('A' for Active; 'I' for Inactive)
REMARK    1  A    between atoms: _1  and  _3
REMARK    2  A    between atoms: _3  and  _4
REMARK    3  A    between atoms: _3  and  _6
REMARK    4  A    between atoms: _6  and  _7
REMARK    5  A    between atoms: _10  and  _12
REMARK    6  A    between atoms: _12  and  _13
REMARK    7  A    between atoms: _12  and  _15
REMARK    8  A    between atoms: _15  and  _16
REMARK    9  A    between atoms: _19  and  _21
REMARK   10  A    between atoms: _21  and  _22
REMARK   11  A    between atoms: _21  and  _24
REMARK   12  A    between atoms: _24  and  _25
REMARK   13  A    between atoms: _27  and  _29
REMARK   14  A    between atoms: _29  and  _30
REMARK   15  A    between atoms: _29  and  _32
REMARK   16  A    between atoms: _32  and  _33
REMARK   17  A    between atoms: _38  and  _39
REMARK   18  A    between atoms: _41  and  _43
REMARK   19  A    between atoms: _43  and  _44
REMARK   20  A    between atoms: _43  and  _46
REMARK   21  A    between atoms: _46  and  _47
REMARK   22  A    between atoms: _47  and  _48
REMARK   23  A    between atoms: _48  and  _49
REMARK   24  A    between atoms: _49  and  _50
REMARK   25  A    between atoms: _54  and  _56
REMARK   26  A    between atoms: _56  and  _57
REMARK   27  A    between atoms: _56  and  _59
REMARK   28  A    between atoms: _59  and  _60
REMARK   29  A    between atoms: _65  and  _67
REMARK   30  A    between atoms: _67  and  _68
REMARK   31  A    between atoms: _67  and  _70
REMARK   32  A    between atoms: _70  and  _71
REMARK   33  A    between atoms: _71  and  _72
REMARK   34  A    between atoms: _75  and  _77
REMARK   35  A    between atoms: _77  and  _78
REMARK   36  A    between atoms: _77  and  _80
REMARK   37  A    between atoms: _80  and  _81
REMARK   38  A    between atoms: _84  and  _86
REMARK   39  A    between atoms: _86  and  _87
REMARK   40  A    between atoms: _86  and  _89
REMARK   41  A    between atoms: _89  and  _90
REMARK   42  A    between atoms: _90  and  _91
REMARK   43  A    between atoms: _91  and  _92
REMARK   44  A    between atoms: _101  and  _103
REMARK   45  A    between atoms: _103  and  _104
REMARK   46  A    between atoms: _103  and  _106
REMARK   47  A    between atoms: _106  and  _107
REMARK   48  A    between atoms: _110  and  _112
REMARK   49  A    between atoms: _112  and  _113
REMARK   50  A    between atoms: _112  and  _115
REMARK   51  A    between atoms: _115  and  _116
REMARK   52  A    between atoms: _119  and  _121
REMARK   53  A    between atoms: _121  and  _122
REMARK   54  A    between atoms: _124  and  _126
REMARK   55  A    between atoms: _126  and  _127
REMARK   56  A    between atoms: _126  and  _129
REMARK   57  A    between atoms: _129  and  _130
REMARK   58  A    between atoms: _130  and  _131
REMARK   59  A    between atoms: _134  and  _136
REMARK   60  A    between atoms: _136  and  _137
REMARK   61  A    between atoms: _136  and  _139
REMARK   62  A    between atoms: _139  and  _140
REMARK   63  A    between atoms: _145  and  _146
REMARK   64  A    between atoms: _148  and  _150
REMARK   65  A    between atoms: _150  and  _151
REMARK   66  A    between atoms: _150  and  _153
REMARK   67  A    between atoms: _153  and  _154
REMARK   68  A    between atoms: _154  and  _155
REMARK   69  A    between atoms: _155  and  _156
REMARK   70  A    between atoms: _156  and  _157
REMARK   71  A    between atoms: _161  and  _163
REMARK   72  A    between atoms: _163  and  _164
REMARK   73  A    between atoms: _163  and  _166
REMARK   74  A    between atoms: _166  and  _167
REMARK   75  A    between atoms: _170  and  _172
REMARK   76  A    between atoms: _172  and  _173
REMARK   77  A    between atoms: _172  and  _175
REMARK   78  A    between atoms: _175  and  _176
REMARK   79  A    between atoms: _181  and  _183
REMARK   80  A    between atoms: _183  and  _184
REMARK   81  A    between atoms: _183  and  _186
REMARK   82  A    between atoms: _186  and  _187
REMARK   83  A    between atoms: _190  and  _192
REMARK   84  A    between atoms: _192  and  _193
REMARK   85  A    between atoms: _192  and  _195
REMARK   86  A    between atoms: _195  and  _196
REMARK   87  A    between atoms: _202  and  _204
REMARK   88  A    between atoms: _204  and  _205
REMARK   89  A    between atoms: _207  and  _209
REMARK   90  A    between atoms: _209  and  _210
REMARK   91  A    between atoms: _209  and  _212
REMARK   92  A    between atoms: _212  and  _213
REMARK   93  A    between atoms: _218  and  _219
REMARK   94  A    between atoms: _221  and  _223
REMARK   95  A    between atoms: _223  and  _224
REMARK   96  A    between atoms: _223  and  _226
REMARK   97  A    between atoms: _226  and  _227
REMARK   98  A    between atoms: _227  and  _228
REMARK   99  A    between atoms: _228  and  _229
REMARK  100  A    between atoms: _238  and  _240
REMARK  101  A    between atoms: _240  and  _241
REMARK  102  A    between atoms: _243  and  _245
REMARK  103  A    between atoms: _245  and  _246
REMARK  104  A    between atoms: _248  and  _250
REMARK  105  A    between atoms: _250  and  _251
REMARK  106  A    between atoms: _250  and  _253
REMARK  107  A    between atoms: _253  and  _254
REMARK  108  A    between atoms: _257  and  _259
REMARK  109  A    between atoms: _259  and  _260
REMARK  110  A    between atoms: _259  and  _262
REMARK  111  A    between atoms: _262  and  _263
REMARK  112  A    between atoms: _266  and  _268
REMARK  113  A    between atoms: _268  and  _269
REMARK  114  A    between atoms: _268  and  _271
REMARK  115  A    between atoms: _271  and  _272
REMARK  116  A    between atoms: _275  and  _277
REMARK  117  A    between atoms: _277  and  _278
REMARK  118  A    between atoms: _277  and  _280
REMARK  119  A    between atoms: _280  and  _281
REMARK  120  A    between atoms: _286  and  _287
REMARK  121  A    between atoms: _289  and  _291
REMARK  122  A    between atoms: _291  and  _292
REMARK  123  A    between atoms: _291  and  _294
REMARK  124  A    between atoms: _294  and  _295
REMARK  125  A    between atoms: _297  and  _299
REMARK  126  A    between atoms: _299  and  _300
REMARK  127  A    between atoms: _299  and  _302
REMARK  128  A    between atoms: _306  and  _307
REMARK  129  A    between atoms: _312  and  _314
REMARK  130  A    between atoms: _314  and  _315
REMARK  131  A    between atoms: _318  and  _320
REMARK  132  A    between atoms: _320  and  _321
REMARK  133  A    between atoms: _324  and  _326
REMARK  134  A    between atoms: _326  and  _327
REMARK  135  A    between atoms: _326  and  _329
REMARK  136  A    between atoms: _329  and  _330
REMARK  137  A    between atoms: _330  and  _331
REMARK  138  A    between atoms: _334  and  _336
REMARK  139  A    between atoms: _336  and  _337
REMARK  140  A    between atoms: _336  and  _339
REMARK  141  A    between atoms: _339  and  _340
REMARK  142  A    between atoms: _346  and  _347
REMARK  143  A    between atoms: _352  and  _354
REMARK  144  A    between atoms: _354  and  _355
REMARK  145  A    between atoms: _354  and  _357
REMARK  146  A    between atoms: _360  and  _362
REMARK  147  A    between atoms: _362  and  _363
REMARK  148  A    between atoms: _362  and  _365
REMARK  149  A    between atoms: _365  and  _366
REMARK  150  A    between atoms: _368  and  _370
REMARK  151  A    between atoms: _370  and  _371
REMARK  152  A    between atoms: _370  and  _373
REMARK  153  A    between atoms: _376  and  _378
REMARK  154  A    between atoms: _378  and  _379
REMARK  155  A    between atoms: _378  and  _381
REMARK  156  A    between atoms: _384  and  _386
REMARK  157  A    between atoms: _386  and  _387
REMARK  158  A    between atoms: _386  and  _389
REMARK  159  A    between atoms: _389  and  _390
REMARK  160  A    between atoms: _393  and  _395
REMARK  161  A    between atoms: _395  and  _396
REMARK  162  A    between atoms: _395  and  _398
REMARK  163  A    between atoms: _398  and  _399
REMARK  164  A    between atoms: _399  and  _400
REMARK  165  A    between atoms: _405  and  _407
REMARK  166  A    between atoms: _407  and  _408
REMARK  167  A    between atoms: _412  and  _413
REMARK  168  A    between atoms: _418  and  _420
REMARK  169  A    between atoms: _420  and  _421
REMARK  170  A    between atoms: _420  and  _423
REMARK  171  A    between atoms: _423  and  _424
REMARK  172  A    between atoms: _427  and  _429
REMARK  173  A    between atoms: _429  and  _430
REMARK  174  A    between atoms: _429  and  _432
REMARK  175  A    between atoms: _432  and  _433
REMARK  176  A    between atoms: _436  and  _438
REMARK  177  A    between atoms: _438  and  _439
REMARK  178  A    between atoms: _438  and  _441
REMARK  179  A    between atoms: _441  and  _442
REMARK  180  A    between atoms: _445  and  _447
REMARK  181  A    between atoms: _447  and  _448
REMARK  182  A    between atoms: _447  and  _450
REMARK  183  A    between atoms: _450  and  _451
REMARK  184  A    between atoms: _451  and  _452
REMARK  185  A    between atoms: _452  and  _453
REMARK  186  A    between atoms: _463  and  _464
REMARK  187  A    between atoms: _469  and  _471
REMARK  188  A    between atoms: _471  and  _472
REMARK  189  A    between atoms: _471  and  _474
REMARK  190  A    between atoms: _474  and  _475
REMARK  191  A    between atoms: _478  and  _480
REMARK  192  A    between atoms: _480  and  _481
REMARK  193  A    between atoms: _480  and  _483
REMARK  194  A    between atoms: _483  and  _484
REMARK  195  A    between atoms: _487  and  _489
REMARK  196  A    between atoms: _489  and  _490
REMARK  197  A    between atoms: _489  and  _492
REMARK  198  A    between atoms: _492  and  _493
REMARK  199  A    between atoms: _497  and  _498
REMARK  200  A    between atoms: _503  and  _505
REMARK  201  A    between atoms: _505  and  _506
REMARK  202  A    between atoms: _505  and  _508
REMARK  203  A    between atoms: _508  and  _509
REMARK  204  A    between atoms: _512  and  _514
REMARK  205  A    between atoms: _514  and  _515
REMARK  206  A    between atoms: _514  and  _517
REMARK  207  A    between atoms: _517  and  _518
REMARK  208  A    between atoms: _518  and  _519
REMARK  209  A    between atoms: _519  and  _520
REMARK  210  A    between atoms: _529  and  _531
REMARK  211  A    between atoms: _531  and  _532
REMARK  212  A    between atoms: _531  and  _534
REMARK  213  A    between atoms: _537  and  _539
REMARK  214  A    between atoms: _539  and  _540
REMARK  215  A    between atoms: _539  and  _542
REMARK  216  A    between atoms: _542  and  _543
REMARK  217  A    between atoms: _546  and  _548
REMARK  218  A    between atoms: _548  and  _549
REMARK  219  A    between atoms: _548  and  _551
REMARK  220  A    between atoms: _551  and  _552
REMARK  221  A    between atoms: _552  and  _553
REMARK  222  A    between atoms: _558  and  _560
REMARK  223  A    between atoms: _560  and  _561
REMARK  224  A    between atoms: _563  and  _565
REMARK  225  A    between atoms: _565  and  _566
REMARK  226  A    between atoms: _565  and  _568
REMARK  227  A    between atoms: _568  and  _569
REMARK  228  A    between atoms: _572  and  _574
REMARK  229  A    between atoms: _574  and  _575
REMARK  230  A    between atoms: _574  and  _577
REMARK  231  A    between atoms: _577  and  _578
REMARK  232  A    between atoms: _580  and  _582
REMARK  233  A    between atoms: _582  and  _583
REMARK  234  A    between atoms: _582  and  _585
REMARK  235  A    between atoms: _585  and  _586
REMARK  236  A    between atoms: _589  and  _591
REMARK  237  A    between atoms: _591  and  _592
REMARK  238  A    between atoms: _591  and  _594
REMARK  239  A    between atoms: _594  and  _595
REMARK  240  A    between atoms: _595  and  _596
REMARK  241  A    between atoms: _599  and  _601
REMARK  242  A    between atoms: _601  and  _602
REMARK  243  A    between atoms: _601  and  _604
REMARK  244  A    between atoms: _604  and  _605
REMARK  245  A    between atoms: _610  and  _612
REMARK  246  A    between atoms: _612  and  _613
REMARK  247  A    between atoms: _612  and  _615
REMARK  248  A    between atoms: _615  and  _616
REMARK  249  A    between atoms: _619  and  _621
REMARK  250  A    between atoms: _621  and  _622
REMARK  251  A    between atoms: _625  and  _627
REMARK  252  A    between atoms: _627  and  _628
REMARK  253  A    between atoms: _627  and  _630
REMARK  254  A    between atoms: _630  and  _631
REMARK  255  A    between atoms: _637  and  _639
REMARK  256  A    between atoms: _639  and  _640
REMARK  257  A    between atoms: _642  and  _644
REMARK  258  A    between atoms: _644  and  _645
REMARK  259  A    between atoms: _644  and  _647
REMARK  260  A    between atoms: _647  and  _648
REMARK  261  A    between atoms: _650  and  _652
REMARK  262  A    between atoms: _652  and  _653
REMARK                            x       y       z     vdW  Elec       q    Type
REMARK                         _______ _______ _______ _____ _____    ______ ____
ROOT
ATOM      1  O   HOH     1       4.483 -10.049  38.958  0.00  0.00    +0.000 OA
ENDROOT
TORSDOF 0
REMARK  Name = ../refined-set-2016/2gvj/2gvj_pocket.pdb
REMARK  262 active torsions:
REMARK  status: ('A' for Active; 'I' for Inactive)
REMARK    1  A    between atoms: _1  and  _3
REMARK    2  A    between atoms: _3  and  _4
REMARK    3  A    between atoms: _3  and  _6
REMARK    4  A    between atoms: _6  and  _7
REMARK    5  A    between atoms: _10  and  _12
REMARK    6  A    between atoms: _12  and  _13
REMARK    7  A    between atoms: _12  and  _15
REMARK    8  A    between atoms: _15  and  _16
REMARK    9  A    between atoms: _19  and  _21
REMARK   10  A    between atoms: _21  and  _22
REMARK   11  A    between atoms: _21  and  _24
REMARK   12  A    between atoms: _24  and  _25
REMARK   13  A    between atoms: _27  and  _29
REMARK   14  A    between atoms: _29  and  _30
REMARK   15  A    between atoms: _29  and  _32
REMARK   16  A    between atoms: _32  and  _33
REMARK   17  A    between atoms: _38  and  _39
REMARK   18  A    between atoms: _41  and  _43
REMARK   19  A    between atoms: _43  and  _44
REMARK   20  A    between atoms: _43  and  _46
REMARK   21  A    between atoms: _46  and  _47
REMARK   22  A    between atoms: _47  and  _48
REMARK   23  A    between atoms: _48  and  _49
REMARK   24  A    between atoms: _49  and  _50
REMARK   25  A    between atoms: _54  and  _56
REMARK   26  A    between atoms: _56  and  _57
REMARK   27  A    between atoms: _56  and  _59
REMARK   28  A    between atoms: _59  and  _60
REMARK   29  A    between atoms: _65  and  _67
REMARK   30  A    between atoms: _67  and  _68
REMARK   31  A    between atoms: _67  and  _70
REMARK   32  A    between atoms: _70  and  _71
REMARK   33  A    between atoms: _71  and  _72
REMARK   34  A    between atoms: _75  and  _77
REMARK   35  A    between atoms: _77  and  _78
REMARK   36  A    between atoms: _77  and  _80
REMARK   37  A    between atoms: _80  and  _81
REMARK   38  A    between atoms: _84  and  _86
REMARK   39  A    between atoms: _86  and  _87
REMARK   40  A    between atoms: _86  and  _89
REMARK   41  A    between atoms: _89  and  _90
REMARK   42  A    between atoms: _90  and  _91
REMARK   43  A    between atoms: _91  and  _92
REMARK   44  A    between atoms: _101  and  _103
REMARK   45  A    between atoms: _103  and  _104
REMARK   46  A    between atoms: _103  and  _106
REMARK   47  A    between atoms: _106  and  _107
REMARK   48  A    between atoms: _110  and  _112
REMARK   49  A    between atoms: _112  and  _113
REMARK   50  A    between atoms: _112  and  _115
REMARK   51  A    between atoms: _115  and  _116
REMARK   52  A    between atoms: _119  and  _121
REMARK   53  A    between atoms: _121  and  _122
REMARK   54  A    between atoms: _124  and  _126
REMARK   55  A    between atoms: _126  and  _127
REMARK   56  A    between atoms: _126  and  _129
REMARK   57  A    between atoms: _129  and  _130
REMARK   58  A    between atoms: _130  and  _131
REMARK   59  A    between atoms: _134  and  _136
REMARK   60  A    between atoms: _136  and  _137
REMARK   61  A    between atoms: _136  and  _139
REMARK   62  A    between atoms: _139  and  _140
REMARK   63  A    between atoms: _145  and  _146
REMARK   64  A    between atoms: _148  and  _150
REMARK   65  A    between atoms: _150  and  _151
REMARK   66  A    between atoms: _150  and  _153
REMARK   67  A    between atoms: _153  and  _154
REMARK   68  A    between atoms: _154  and  _155
REMARK   69  A    between atoms: _155  and  _156
REMARK   70  A    between atoms: _156  and  _157
REMARK   71  A    between atoms: _161  and  _163
REMARK   72  A    between atoms: _163  and  _164
REMARK   73  A    between atoms: _163  and  _166
REMARK   74  A    between atoms: _166  and  _167
REMARK   75  A    between atoms: _170  and  _172
REMARK   76  A    between atoms: _172  and  _173
REMARK   77  A    between atoms: _172  and  _175
REMARK   78  A    between atoms: _175  and  _176
REMARK   79  A    between atoms: _181  and  _183
REMARK   80  A    between atoms: _183  and  _184
REMARK   81  A    between atoms: _183  and  _186
REMARK   82  A    between atoms: _186  and  _187
REMARK   83  A    between atoms: _190  and  _192
REMARK   84  A    between atoms: _192  and  _193
REMARK   85  A    between atoms: _192  and  _195
REMARK   86  A    between atoms: _195  and  _196
REMARK   87  A    between atoms: _202  and  _204
REMARK   88  A    between atoms: _204  and  _205
REMARK   89  A    between atoms: _207  and  _209
REMARK   90  A    between atoms: _209  and  _210
REMARK   91  A    between atoms: _209  and  _212
REMARK   92  A    between atoms: _212  and  _213
REMARK   93  A    between atoms: _218  and  _219
REMARK   94  A    between atoms: _221  and  _223
REMARK   95  A    between atoms: _223  and  _224
REMARK   96  A    between atoms: _223  and  _226
REMARK   97  A    between atoms: _226  and  _227
REMARK   98  A    between atoms: _227  and  _228
REMARK   99  A    between atoms: _228  and  _229
REMARK  100  A    between atoms: _238  and  _240
REMARK  101  A    between atoms: _240  and  _241
REMARK  102  A    between atoms: _243  and  _245
REMARK  103  A    between atoms: _245  and  _246
REMARK  104  A    between atoms: _248  and  _250
REMARK  105  A    between atoms: _250  and  _251
REMARK  106  A    between atoms: _250  and  _253
REMARK  107  A    between atoms: _253  and  _254
REMARK  108  A    between atoms: _257  and  _259
REMARK  109  A    between atoms: _259  and  _260
REMARK  110  A    between atoms: _259  and  _262
REMARK  111  A    between atoms: _262  and  _263
REMARK  112  A    between atoms: _266  and  _268
REMARK  113  A    between atoms: _268  and  _269
REMARK  114  A    between atoms: _268  and  _271
REMARK  115  A    between atoms: _271  and  _272
REMARK  116  A    between atoms: _275  and  _277
REMARK  117  A    between atoms: _277  and  _278
REMARK  118  A    between atoms: _277  and  _280
REMARK  119  A    between atoms: _280  and  _281
REMARK  120  A    between atoms: _286  and  _287
REMARK  121  A    between atoms: _289  and  _291
REMARK  122  A    between atoms: _291  and  _292
REMARK  123  A    between atoms: _291  and  _294
REMARK  124  A    between atoms: _294  and  _295
REMARK  125  A    between atoms: _297  and  _299
REMARK  126  A    between atoms: _299  and  _300
REMARK  127  A    between atoms: _299  and  _302
REMARK  128  A    between atoms: _306  and  _307
REMARK  129  A    between atoms: _312  and  _314
REMARK  130  A    between atoms: _314  and  _315
REMARK  131  A    between atoms: _318  and  _320
REMARK  132  A    between atoms: _320  and  _321
REMARK  133  A    between atoms: _324  and  _326
REMARK  134  A    between atoms: _326  and  _327
REMARK  135  A    between atoms: _326  and  _329
REMARK  136  A    between atoms: _329  and  _330
REMARK  137  A    between atoms: _330  and  _331
REMARK  138  A    between atoms: _334  and  _336
REMARK  139  A    between atoms: _336  and  _337
REMARK  140  A    between atoms: _336  and  _339
REMARK  141  A    between atoms: _339  and  _340
REMARK  142  A    between atoms: _346  and  _347
REMARK  143  A    between atoms: _352  and  _354
REMARK  144  A    between atoms: _354  and  _355
REMARK  145  A    between atoms: _354  and  _357
REMARK  146  A    between atoms: _360  and  _362
REMARK  147  A    between atoms: _362  and  _363
REMARK  148  A    between atoms: _362  and  _365
REMARK  149  A    between atoms: _365  and  _366
REMARK  150  A    between atoms: _368  and  _370
REMARK  151  A    between atoms: _370  and  _371
REMARK  152  A    between atoms: _370  and  _373
REMARK  153  A    between atoms: _376  and  _378
REMARK  154  A    between atoms: _378  and  _379
REMARK  155  A    between atoms: _378  and  _381
REMARK  156  A    between atoms: _384  and  _386
REMARK  157  A    between atoms: _386  and  _387
REMARK  158  A    between atoms: _386  and  _389
REMARK  159  A    between atoms: _389  and  _390
REMARK  160  A    between atoms: _393  and  _395
REMARK  161  A    between atoms: _395  and  _396
REMARK  162  A    between atoms: _395  and  _398
REMARK  163  A    between atoms: _398  and  _399
REMARK  164  A    between atoms: _399  and  _400
REMARK  165  A    between atoms: _405  and  _407
REMARK  166  A    between atoms: _407  and  _408
REMARK  167  A    between atoms: _412  and  _413
REMARK  168  A    between atoms: _418  and  _420
REMARK  169  A    between atoms: _420  and  _421
REMARK  170  A    between atoms: _420  and  _423
REMARK  171  A    between atoms: _423  and  _424
REMARK  172  A    between atoms: _427  and  _429
REMARK  173  A    between atoms: _429  and  _430
REMARK  174  A    between atoms: _429  and  _432
REMARK  175  A    between atoms: _432  and  _433
REMARK  176  A    between atoms: _436  and  _438
REMARK  177  A    between atoms: _438  and  _439
REMARK  178  A    between atoms: _438  and  _441
REMARK  179  A    between atoms: _441  and  _442
REMARK  180  A    between atoms: _445  and  _447
REMARK  181  A    between atoms: _447  and  _448
REMARK  182  A    between atoms: _447  and  _450
REMARK  183  A    between atoms: _450  and  _451
REMARK  184  A    between atoms: _451  and  _452
REMARK  185  A    between atoms: _452  and  _453
REMARK  186  A    between atoms: _463  and  _464
REMARK  187  A    between atoms: _469  and  _471
REMARK  188  A    between atoms: _471  and  _472
REMARK  189  A    between atoms: _471  and  _474
REMARK  190  A    between atoms: _474  and  _475
REMARK  191  A    between atoms: _478  and  _480
REMARK  192  A    between atoms: _480  and  _481
REMARK  193  A    between atoms: _480  and  _483
REMARK  194  A    between atoms: _483  and  _484
REMARK  195  A    between atoms: _487  and  _489
REMARK  196  A    between atoms: _489  and  _490
REMARK  197  A    between atoms: _489  and  _492
REMARK  198  A    between atoms: _492  and  _493
REMARK  199  A    between atoms: _497  and  _498
REMARK  200  A    between atoms: _503  and  _505
REMARK  201  A    between atoms: _505  and  _506
REMARK  202  A    between atoms: _505  and  _508
REMARK  203  A    between atoms: _508  and  _509
REMARK  204  A    between atoms: _512  and  _514
REMARK  205  A    between atoms: _514  and  _515
REMARK  206  A    between atoms: _514  and  _517
REMARK  207  A    between atoms: _517  and  _518
REMARK  208  A    between atoms: _518  and  _519
REMARK  209  A    between atoms: _519  and  _520
REMARK  210  A    between atoms: _529  and  _531
REMARK  211  A    between atoms: _531  and  _532
REMARK  212  A    between atoms: _531  and  _534
REMARK  213  A    between atoms: _537  and  _539
REMARK  214  A    between atoms: _539  and  _540
REMARK  215  A    between atoms: _539  and  _542
REMARK  216  A    between atoms: _542  and  _543
REMARK  217  A    between atoms: _546  and  _548
REMARK  218  A    between atoms: _548  and  _549
REMARK  219  A    between atoms: _548  and  _551
REMARK  220  A    between atoms: _551  and  _552
REMARK  221  A    between atoms: _552  and  _553
REMARK  222  A    between atoms: _558  and  _560
REMARK  223  A    between atoms: _560  and  _561
REMARK  224  A    between atoms: _563  and  _565
REMARK  225  A    between atoms: _565  and  _566
REMARK  226  A    between atoms: _565  and  _568
REMARK  227  A    between atoms: _568  and  _569
REMARK  228  A    between atoms: _572  and  _574
REMARK  229  A    between atoms: _574  and  _575
REMARK  230  A    between atoms: _574  and  _577
REMARK  231  A    between atoms: _577  and  _578
REMARK  232  A    between atoms: _580  and  _582
REMARK  233  A    between atoms: _582  and  _583
REMARK  234  A    between atoms: _582  and  _585
REMARK  235  A    between atoms: _585  and  _586
REMARK  236  A    between atoms: _589  and  _591
REMARK  237  A    between atoms: _591  and  _592
REMARK  238  A    between atoms: _591  and  _594
REMARK  239  A    between atoms: _594  and  _595
REMARK  240  A    between atoms: _595  and  _596
REMARK  241  A    between atoms: _599  and  _601
REMARK  242  A    between atoms: _601  and  _602
REMARK  243  A    between atoms: _601  and  _604
REMARK  244  A    between atoms: _604  and  _605
REMARK  245  A    between atoms: _610  and  _612
REMARK  246  A    between atoms: _612  and  _613
REMARK  247  A    between atoms: _612  and  _615
REMARK  248  A    between atoms: _615  and  _616
REMARK  249  A    between atoms: _619  and  _621
REMARK  250  A    between atoms: _621  and  _622
REMARK  251  A    between atoms: _625  and  _627
REMARK  252  A    between atoms: _627  and  _628
REMARK  253  A    between atoms: _627  and  _630
REMARK  254  A    between atoms: _630  and  _631
REMARK  255  A    between atoms: _637  and  _639
REMARK  256  A    between atoms: _639  and  _640
REMARK  257  A    between atoms: _642  and  _644
REMARK  258  A    between atoms: _644  and  _645
REMARK  259  A    between atoms: _644  and  _647
REMARK  260  A    between atoms: _647  and  _648
REMARK  261  A    between atoms: _650  and  _652
REMARK  262  A    between atoms: _652  and  _653
REMARK                            x       y       z     vdW  Elec       q    Type
REMARK                         _______ _______ _______ _____ _____    ______ ____
ROOT
ATOM      1  O   HOH     1      17.001  -2.180  50.128  0.00  0.00    +0.000 OA
ENDROOT
TORSDOF 0
REMARK  Name = ../refined-set-2016/2gvj/2gvj_pocket.pdb
REMARK  262 active torsions:
REMARK  status: ('A' for Active; 'I' for Inactive)
REMARK    1  A    between atoms: _1  and  _3
REMARK    2  A    between atoms: _3  and  _4
REMARK    3  A    between atoms: _3  and  _6
REMARK    4  A    between atoms: _6  and  _7
REMARK    5  A    between atoms: _10  and  _12
REMARK    6  A    between atoms: _12  and  _13
REMARK    7  A    between atoms: _12  and  _15
REMARK    8  A    between atoms: _15  and  _16
REMARK    9  A    between atoms: _19  and  _21
REMARK   10  A    between atoms: _21  and  _22
REMARK   11  A    between atoms: _21  and  _24
REMARK   12  A    between atoms: _24  and  _25
REMARK   13  A    between atoms: _27  and  _29
REMARK   14  A    between atoms: _29  and  _30
REMARK   15  A    between atoms: _29  and  _32
REMARK   16  A    between atoms: _32  and  _33
REMARK   17  A    between atoms: _38  and  _39
REMARK   18  A    between atoms: _41  and  _43
REMARK   19  A    between atoms: _43  and  _44
REMARK   20  A    between atoms: _43  and  _46
REMARK   21  A    between atoms: _46  and  _47
REMARK   22  A    between atoms: _47  and  _48
REMARK   23  A    between atoms: _48  and  _49
REMARK   24  A    between atoms: _49  and  _50
REMARK   25  A    between atoms: _54  and  _56
REMARK   26  A    between atoms: _56  and  _57
REMARK   27  A    between atoms: _56  and  _59
REMARK   28  A    between atoms: _59  and  _60
REMARK   29  A    between atoms: _65  and  _67
REMARK   30  A    between atoms: _67  and  _68
REMARK   31  A    between atoms: _67  and  _70
REMARK   32  A    between atoms: _70  and  _71
REMARK   33  A    between atoms: _71  and  _72
REMARK   34  A    between atoms: _75  and  _77
REMARK   35  A    between atoms: _77  and  _78
REMARK   36  A    between atoms: _77  and  _80
REMARK   37  A    between atoms: _80  and  _81
REMARK   38  A    between atoms: _84  and  _86
REMARK   39  A    between atoms: _86  and  _87
REMARK   40  A    between atoms: _86  and  _89
REMARK   41  A    between atoms: _89  and  _90
REMARK   42  A    between atoms: _90  and  _91
REMARK   43  A    between atoms: _91  and  _92
REMARK   44  A    between atoms: _101  and  _103
REMARK   45  A    between atoms: _103  and  _104
REMARK   46  A    between atoms: _103  and  _106
REMARK   47  A    between atoms: _106  and  _107
REMARK   48  A    between atoms: _110  and  _112
REMARK   49  A    between atoms: _112  and  _113
REMARK   50  A    between atoms: _112  and  _115
REMARK   51  A    between atoms: _115  and  _116
REMARK   52  A    between atoms: _119  and  _121
REMARK   53  A    between atoms: _121  and  _122
REMARK   54  A    between atoms: _124  and  _126
REMARK   55  A    between atoms: _126  and  _127
REMARK   56  A    between atoms: _126  and  _129
REMARK   57  A    between atoms: _129  and  _130
REMARK   58  A    between atoms: _130  and  _131
REMARK   59  A    between atoms: _134  and  _136
REMARK   60  A    between atoms: _136  and  _137
REMARK   61  A    between atoms: _136  and  _139
REMARK   62  A    between atoms: _139  and  _140
REMARK   63  A    between atoms: _145  and  _146
REMARK   64  A    between atoms: _148  and  _150
REMARK   65  A    between atoms: _150  and  _151
REMARK   66  A    between atoms: _150  and  _153
REMARK   67  A    between atoms: _153  and  _154
REMARK   68  A    between atoms: _154  and  _155
REMARK   69  A    between atoms: _155  and  _156
REMARK   70  A    between atoms: _156  and  _157
REMARK   71  A    between atoms: _161  and  _163
REMARK   72  A    between atoms: _163  and  _164
REMARK   73  A    between atoms: _163  and  _166
REMARK   74  A    between atoms: _166  and  _167
REMARK   75  A    between atoms: _170  and  _172
REMARK   76  A    between atoms: _172  and  _173
REMARK   77  A    between atoms: _172  and  _175
REMARK   78  A    between atoms: _175  and  _176
REMARK   79  A    between atoms: _181  and  _183
REMARK   80  A    between atoms: _183  and  _184
REMARK   81  A    between atoms: _183  and  _186
REMARK   82  A    between atoms: _186  and  _187
REMARK   83  A    between atoms: _190  and  _192
REMARK   84  A    between atoms: _192  and  _193
REMARK   85  A    between atoms: _192  and  _195
REMARK   86  A    between atoms: _195  and  _196
REMARK   87  A    between atoms: _202  and  _204
REMARK   88  A    between atoms: _204  and  _205
REMARK   89  A    between atoms: _207  and  _209
REMARK   90  A    between atoms: _209  and  _210
REMARK   91  A    between atoms: _209  and  _212
REMARK   92  A    between atoms: _212  and  _213
REMARK   93  A    between atoms: _218  and  _219
REMARK   94  A    between atoms: _221  and  _223
REMARK   95  A    between atoms: _223  and  _224
REMARK   96  A    between atoms: _223  and  _226
REMARK   97  A    between atoms: _226  and  _227
REMARK   98  A    between atoms: _227  and  _228
REMARK   99  A    between atoms: _228  and  _229
REMARK  100  A    between atoms: _238  and  _240
REMARK  101  A    between atoms: _240  and  _241
REMARK  102  A    between atoms: _243  and  _245
REMARK  103  A    between atoms: _245  and  _246
REMARK  104  A    between atoms: _248  and  _250
REMARK  105  A    between atoms: _250  and  _251
REMARK  106  A    between atoms: _250  and  _253
REMARK  107  A    between atoms: _253  and  _254
REMARK  108  A    between atoms: _257  and  _259
REMARK  109  A    between atoms: _259  and  _260
REMARK  110  A    between atoms: _259  and  _262
REMARK  111  A    between atoms: _262  and  _263
REMARK  112  A    between atoms: _266  and  _268
REMARK  113  A    between atoms: _268  and  _269
REMARK  114  A    between atoms: _268  and  _271
REMARK  115  A    between atoms: _271  and  _272
REMARK  116  A    between atoms: _275  and  _277
REMARK  117  A    between atoms: _277  and  _278
REMARK  118  A    between atoms: _277  and  _280
REMARK  119  A    between atoms: _280  and  _281
REMARK  120  A    between atoms: _286  and  _287
REMARK  121  A    between atoms: _289  and  _291
REMARK  122  A    between atoms: _291  and  _292
REMARK  123  A    between atoms: _291  and  _294
REMARK  124  A    between atoms: _294  and  _295
REMARK  125  A    between atoms: _297  and  _299
REMARK  126  A    between atoms: _299  and  _300
REMARK  127  A    between atoms: _299  and  _302
REMARK  128  A    between atoms: _306  and  _307
REMARK  129  A    between atoms: _312  and  _314
REMARK  130  A    between atoms: _314  and  _315
REMARK  131  A    between atoms: _318  and  _320
REMARK  132  A    between atoms: _320  and  _321
REMARK  133  A    between atoms: _324  and  _326
REMARK  134  A    between atoms: _326  and  _327
REMARK  135  A    between atoms: _326  and  _329
REMARK  136  A    between atoms: _329  and  _330
REMARK  137  A    between atoms: _330  and  _331
REMARK  138  A    between atoms: _334  and  _336
REMARK  139  A    between atoms: _336  and  _337
REMARK  140  A    between atoms: _336  and  _339
REMARK  141  A    between atoms: _339  and  _340
REMARK  142  A    between atoms: _346  and  _347
REMARK  143  A    between atoms: _352  and  _354
REMARK  144  A    between atoms: _354  and  _355
REMARK  145  A    between atoms: _354  and  _357
REMARK  146  A    between atoms: _360  and  _362
REMARK  147  A    between atoms: _362  and  _363
REMARK  148  A    between atoms: _362  and  _365
REMARK  149  A    between atoms: _365  and  _366
REMARK  150  A    between atoms: _368  and  _370
REMARK  151  A    between atoms: _370  and  _371
REMARK  152  A    between atoms: _370  and  _373
REMARK  153  A    between atoms: _376  and  _378
REMARK  154  A    between atoms: _378  and  _379
REMARK  155  A    between atoms: _378  and  _381
REMARK  156  A    between atoms: _384  and  _386
REMARK  157  A    between atoms: _386  and  _387
REMARK  158  A    between atoms: _386  and  _389
REMARK  159  A    between atoms: _389  and  _390
REMARK  160  A    between atoms: _393  and  _395
REMARK  161  A    between atoms: _395  and  _396
REMARK  162  A    between atoms: _395  and  _398
REMARK  163  A    between atoms: _398  and  _399
REMARK  164  A    between atoms: _399  and  _400
REMARK  165  A    between atoms: _405  and  _407
REMARK  166  A    between atoms: _407  and  _408
REMARK  167  A    between atoms: _412  and  _413
REMARK  168  A    between atoms: _418  and  _420
REMARK  169  A    between atoms: _420  and  _421
REMARK  170  A    between atoms: _420  and  _423
REMARK  171  A    between atoms: _423  and  _424
REMARK  172  A    between atoms: _427  and  _429
REMARK  173  A    between atoms: _429  and  _430
REMARK  174  A    between atoms: _429  and  _432
REMARK  175  A    between atoms: _432  and  _433
REMARK  176  A    between atoms: _436  and  _438
REMARK  177  A    between atoms: _438  and  _439
REMARK  178  A    between atoms: _438  and  _441
REMARK  179  A    between atoms: _441  and  _442
REMARK  180  A    between atoms: _445  and  _447
REMARK  181  A    between atoms: _447  and  _448
REMARK  182  A    between atoms: _447  and  _450
REMARK  183  A    between atoms: _450  and  _451
REMARK  184  A    between atoms: _451  and  _452
REMARK  185  A    between atoms: _452  and  _453
REMARK  186  A    between atoms: _463  and  _464
REMARK  187  A    between atoms: _469  and  _471
REMARK  188  A    between atoms: _471  and  _472
REMARK  189  A    between atoms: _471  and  _474
REMARK  190  A    between atoms: _474  and  _475
REMARK  191  A    between atoms: _478  and  _480
REMARK  192  A    between atoms: _480  and  _481
REMARK  193  A    between atoms: _480  and  _483
REMARK  194  A    between atoms: _483  and  _484
REMARK  195  A    between atoms: _487  and  _489
REMARK  196  A    between atoms: _489  and  _490
REMARK  197  A    between atoms: _489  and  _492
REMARK  198  A    between atoms: _492  and  _493
REMARK  199  A    between atoms: _497  and  _498
REMARK  200  A    between atoms: _503  and  _505
REMARK  201  A    between atoms: _505  and  _506
REMARK  202  A    between atoms: _505  and  _508
REMARK  203  A    between atoms: _508  and  _509
REMARK  204  A    between atoms: _512  and  _514
REMARK  205  A    between atoms: _514  and  _515
REMARK  206  A    between atoms: _514  and  _517
REMARK  207  A    between atoms: _517  and  _518
REMARK  208  A    between atoms: _518  and  _519
REMARK  209  A    between atoms: _519  and  _520
REMARK  210  A    between atoms: _529  and  _531
REMARK  211  A    between atoms: _531  and  _532
REMARK  212  A    between atoms: _531  and  _534
REMARK  213  A    between atoms: _537  and  _539
REMARK  214  A    between atoms: _539  and  _540
REMARK  215  A    between atoms: _539  and  _542
REMARK  216  A    between atoms: _542  and  _543
REMARK  217  A    between atoms: _546  and  _548
REMARK  218  A    between atoms: _548  and  _549
REMARK  219  A    between atoms: _548  and  _551
REMARK  220  A    between atoms: _551  and  _552
REMARK  221  A    between atoms: _552  and  _553
REMARK  222  A    between atoms: _558  and  _560
REMARK  223  A    between atoms: _560  and  _561
REMARK  224  A    between atoms: _563  and  _565
REMARK  225  A    between atoms: _565  and  _566
REMARK  226  A    between atoms: _565  and  _568
REMARK  227  A    between atoms: _568  and  _569
REMARK  228  A    between atoms: _572  and  _574
REMARK  229  A    between atoms: _574  and  _575
REMARK  230  A    between atoms: _574  and  _577
REMARK  231  A    between atoms: _577  and  _578
REMARK  232  A    between atoms: _580  and  _582
REMARK  233  A    between atoms: _582  and  _583
REMARK  234  A    between atoms: _582  and  _585
REMARK  235  A    between atoms: _585  and  _586
REMARK  236  A    between atoms: _589  and  _591
REMARK  237  A    between atoms: _591  and  _592
REMARK  238  A    between atoms: _591  and  _594
REMARK  239  A    between atoms: _594  and  _595
REMARK  240  A    between atoms: _595  and  _596
REMARK  241  A    between atoms: _599  and  _601
REMARK  242  A    between atoms: _601  and  _602
REMARK  243  A    between atoms: _601  and  _604
REMARK  244  A    between atoms: _604  and  _605
REMARK  245  A    between atoms: _610  and  _612
REMARK  246  A    between atoms: _612  and  _613
REMARK  247  A    between atoms: _612  and  _615
REMARK  248  A    between atoms: _615  and  _616
REMARK  249  A    between atoms: _619  and  _621
REMARK  250  A    between atoms: _621  and  _622
REMARK  251  A    between atoms: _625  and  _627
REMARK  252  A    between atoms: _627  and  _628
REMARK  253  A    between atoms: _627  and  _630
REMARK  254  A    between atoms: _630  and  _631
REMARK  255  A    between atoms: _637  and  _639
REMARK  256  A    between atoms: _639  and  _640
REMARK  257  A    between atoms: _642  and  _644
REMARK  258  A    between atoms: _644  and  _645
REMARK  259  A    between atoms: _644  and  _647
REMARK  260  A    between atoms: _647  and  _648
REMARK  261  A    between atoms: _650  and  _652
REMARK  262  A    between atoms: _652  and  _653
REMARK                            x       y       z     vdW  Elec       q    Type
REMARK                         _______ _______ _______ _____ _____    ______ ____
ROOT
ATOM      1  O   HOH     1       9.346 -16.196  36.238  0.00  0.00    +0.000 OA
ENDROOT
TORSDOF 0
REMARK  Name = ../refined-set-2016/2gvj/2gvj_pocket.pdb
REMARK  262 active torsions:
REMARK  status: ('A' for Active; 'I' for Inactive)
REMARK    1  A    between atoms: _1  and  _3
REMARK    2  A    between atoms: _3  and  _4
REMARK    3  A    between atoms: _3  and  _6
REMARK    4  A    between atoms: _6  and  _7
REMARK    5  A    between atoms: _10  and  _12
REMARK    6  A    between atoms: _12  and  _13
REMARK    7  A    between atoms: _12  and  _15
REMARK    8  A    between atoms: _15  and  _16
REMARK    9  A    between atoms: _19  and  _21
REMARK   10  A    between atoms: _21  and  _22
REMARK   11  A    between atoms: _21  and  _24
REMARK   12  A    between atoms: _24  and  _25
REMARK   13  A    between atoms: _27  and  _29
REMARK   14  A    between atoms: _29  and  _30
REMARK   15  A    between atoms: _29  and  _32
REMARK   16  A    between atoms: _32  and  _33
REMARK   17  A    between atoms: _38  and  _39
REMARK   18  A    between atoms: _41  and  _43
REMARK   19  A    between atoms: _43  and  _44
REMARK   20  A    between atoms: _43  and  _46
REMARK   21  A    between atoms: _46  and  _47
REMARK   22  A    between atoms: _47  and  _48
REMARK   23  A    between atoms: _48  and  _49
REMARK   24  A    between atoms: _49  and  _50
REMARK   25  A    between atoms: _54  and  _56
REMARK   26  A    between atoms: _56  and  _57
REMARK   27  A    between atoms: _56  and  _59
REMARK   28  A    between atoms: _59  and  _60
REMARK   29  A    between atoms: _65  and  _67
REMARK   30  A    between atoms: _67  and  _68
REMARK   31  A    between atoms: _67  and  _70
REMARK   32  A    between atoms: _70  and  _71
REMARK   33  A    between atoms: _71  and  _72
REMARK   34  A    between atoms: _75  and  _77
REMARK   35  A    between atoms: _77  and  _78
REMARK   36  A    between atoms: _77  and  _80
REMARK   37  A    between atoms: _80  and  _81
REMARK   38  A    between atoms: _84  and  _86
REMARK   39  A    between atoms: _86  and  _87
REMARK   40  A    between atoms: _86  and  _89
REMARK   41  A    between atoms: _89  and  _90
REMARK   42  A    between atoms: _90  and  _91
REMARK   43  A    between atoms: _91  and  _92
REMARK   44  A    between atoms: _101  and  _103
REMARK   45  A    between atoms: _103  and  _104
REMARK   46  A    between atoms: _103  and  _106
REMARK   47  A    between atoms: _106  and  _107
REMARK   48  A    between atoms: _110  and  _112
REMARK   49  A    between atoms: _112  and  _113
REMARK   50  A    between atoms: _112  and  _115
REMARK   51  A    between atoms: _115  and  _116
REMARK   52  A    between atoms: _119  and  _121
REMARK   53  A    between atoms: _121  and  _122
REMARK   54  A    between atoms: _124  and  _126
REMARK   55  A    between atoms: _126  and  _127
REMARK   56  A    between atoms: _126  and  _129
REMARK   57  A    between atoms: _129  and  _130
REMARK   58  A    between atoms: _130  and  _131
REMARK   59  A    between atoms: _134  and  _136
REMARK   60  A    between atoms: _136  and  _137
REMARK   61  A    between atoms: _136  and  _139
REMARK   62  A    between atoms: _139  and  _140
REMARK   63  A    between atoms: _145  and  _146
REMARK   64  A    between atoms: _148  and  _150
REMARK   65  A    between atoms: _150  and  _151
REMARK   66  A    between atoms: _150  and  _153
REMARK   67  A    between atoms: _153  and  _154
REMARK   68  A    between atoms: _154  and  _155
REMARK   69  A    between atoms: _155  and  _156
REMARK   70  A    between atoms: _156  and  _157
REMARK   71  A    between atoms: _161  and  _163
REMARK   72  A    between atoms: _163  and  _164
REMARK   73  A    between atoms: _163  and  _166
REMARK   74  A    between atoms: _166  and  _167
REMARK   75  A    between atoms: _170  and  _172
REMARK   76  A    between atoms: _172  and  _173
REMARK   77  A    between atoms: _172  and  _175
REMARK   78  A    between atoms: _175  and  _176
REMARK   79  A    between atoms: _181  and  _183
REMARK   80  A    between atoms: _183  and  _184
REMARK   81  A    between atoms: _183  and  _186
REMARK   82  A    between atoms: _186  and  _187
REMARK   83  A    between atoms: _190  and  _192
REMARK   84  A    between atoms: _192  and  _193
REMARK   85  A    between atoms: _192  and  _195
REMARK   86  A    between atoms: _195  and  _196
REMARK   87  A    between atoms: _202  and  _204
REMARK   88  A    between atoms: _204  and  _205
REMARK   89  A    between atoms: _207  and  _209
REMARK   90  A    between atoms: _209  and  _210
REMARK   91  A    between atoms: _209  and  _212
REMARK   92  A    between atoms: _212  and  _213
REMARK   93  A    between atoms: _218  and  _219
REMARK   94  A    between atoms: _221  and  _223
REMARK   95  A    between atoms: _223  and  _224
REMARK   96  A    between atoms: _223  and  _226
REMARK   97  A    between atoms: _226  and  _227
REMARK   98  A    between atoms: _227  and  _228
REMARK   99  A    between atoms: _228  and  _229
REMARK  100  A    between atoms: _238  and  _240
REMARK  101  A    between atoms: _240  and  _241
REMARK  102  A    between atoms: _243  and  _245
REMARK  103  A    between atoms: _245  and  _246
REMARK  104  A    between atoms: _248  and  _250
REMARK  105  A    between atoms: _250  and  _251
REMARK  106  A    between atoms: _250  and  _253
REMARK  107  A    between atoms: _253  and  _254
REMARK  108  A    between atoms: _257  and  _259
REMARK  109  A    between atoms: _259  and  _260
REMARK  110  A    between atoms: _259  and  _262
REMARK  111  A    between atoms: _262  and  _263
REMARK  112  A    between atoms: _266  and  _268
REMARK  113  A    between atoms: _268  and  _269
REMARK  114  A    between atoms: _268  and  _271
REMARK  115  A    between atoms: _271  and  _272
REMARK  116  A    between atoms: _275  and  _277
REMARK  117  A    between atoms: _277  and  _278
REMARK  118  A    between atoms: _277  and  _280
REMARK  119  A    between atoms: _280  and  _281
REMARK  120  A    between atoms: _286  and  _287
REMARK  121  A    between atoms: _289  and  _291
REMARK  122  A    between atoms: _291  and  _292
REMARK  123  A    between atoms: _291  and  _294
REMARK  124  A    between atoms: _294  and  _295
REMARK  125  A    between atoms: _297  and  _299
REMARK  126  A    between atoms: _299  and  _300
REMARK  127  A    between atoms: _299  and  _302
REMARK  128  A    between atoms: _306  and  _307
REMARK  129  A    between atoms: _312  and  _314
REMARK  130  A    between atoms: _314  and  _315
REMARK  131  A    between atoms: _318  and  _320
REMARK  132  A    between atoms: _320  and  _321
REMARK  133  A    between atoms: _324  and  _326
REMARK  134  A    between atoms: _326  and  _327
REMARK  135  A    between atoms: _326  and  _329
REMARK  136  A    between atoms: _329  and  _330
REMARK  137  A    between atoms: _330  and  _331
REMARK  138  A    between atoms: _334  and  _336
REMARK  139  A    between atoms: _336  and  _337
REMARK  140  A    between atoms: _336  and  _339
REMARK  141  A    between atoms: _339  and  _340
REMARK  142  A    between atoms: _346  and  _347
REMARK  143  A    between atoms: _352  and  _354
REMARK  144  A    between atoms: _354  and  _355
REMARK  145  A    between atoms: _354  and  _357
REMARK  146  A    between atoms: _360  and  _362
REMARK  147  A    between atoms: _362  and  _363
REMARK  148  A    between atoms: _362  and  _365
REMARK  149  A    between atoms: _365  and  _366
REMARK  150  A    between atoms: _368  and  _370
REMARK  151  A    between atoms: _370  and  _371
REMARK  152  A    between atoms: _370  and  _373
REMARK  153  A    between atoms: _376  and  _378
REMARK  154  A    between atoms: _378  and  _379
REMARK  155  A    between atoms: _378  and  _381
REMARK  156  A    between atoms: _384  and  _386
REMARK  157  A    between atoms: _386  and  _387
REMARK  158  A    between atoms: _386  and  _389
REMARK  159  A    between atoms: _389  and  _390
REMARK  160  A    between atoms: _393  and  _395
REMARK  161  A    between atoms: _395  and  _396
REMARK  162  A    between atoms: _395  and  _398
REMARK  163  A    between atoms: _398  and  _399
REMARK  164  A    between atoms: _399  and  _400
REMARK  165  A    between atoms: _405  and  _407
REMARK  166  A    between atoms: _407  and  _408
REMARK  167  A    between atoms: _412  and  _413
REMARK  168  A    between atoms: _418  and  _420
REMARK  169  A    between atoms: _420  and  _421
REMARK  170  A    between atoms: _420  and  _423
REMARK  171  A    between atoms: _423  and  _424
REMARK  172  A    between atoms: _427  and  _429
REMARK  173  A    between atoms: _429  and  _430
REMARK  174  A    between atoms: _429  and  _432
REMARK  175  A    between atoms: _432  and  _433
REMARK  176  A    between atoms: _436  and  _438
REMARK  177  A    between atoms: _438  and  _439
REMARK  178  A    between atoms: _438  and  _441
REMARK  179  A    between atoms: _441  and  _442
REMARK  180  A    between atoms: _445  and  _447
REMARK  181  A    between atoms: _447  and  _448
REMARK  182  A    between atoms: _447  and  _450
REMARK  183  A    between atoms: _450  and  _451
REMARK  184  A    between atoms: _451  and  _452
REMARK  185  A    between atoms: _452  and  _453
REMARK  186  A    between atoms: _463  and  _464
REMARK  187  A    between atoms: _469  and  _471
REMARK  188  A    between atoms: _471  and  _472
REMARK  189  A    between atoms: _471  and  _474
REMARK  190  A    between atoms: _474  and  _475
REMARK  191  A    between atoms: _478  and  _480
REMARK  192  A    between atoms: _480  and  _481
REMARK  193  A    between atoms: _480  and  _483
REMARK  194  A    between atoms: _483  and  _484
REMARK  195  A    between atoms: _487  and  _489
REMARK  196  A    between atoms: _489  and  _490
REMARK  197  A    between atoms: _489  and  _492
REMARK  198  A    between atoms: _492  and  _493
REMARK  199  A    between atoms: _497  and  _498
REMARK  200  A    between atoms: _503  and  _505
REMARK  201  A    between atoms: _505  and  _506
REMARK  202  A    between atoms: _505  and  _508
REMARK  203  A    between atoms: _508  and  _509
REMARK  204  A    between atoms: _512  and  _514
REMARK  205  A    between atoms: _514  and  _515
REMARK  206  A    between atoms: _514  and  _517
REMARK  207  A    between atoms: _517  and  _518
REMARK  208  A    between atoms: _518  and  _519
REMARK  209  A    between atoms: _519  and  _520
REMARK  210  A    between atoms: _529  and  _531
REMARK  211  A    between atoms: _531  and  _532
REMARK  212  A    between atoms: _531  and  _534
REMARK  213  A    between atoms: _537  and  _539
REMARK  214  A    between atoms: _539  and  _540
REMARK  215  A    between atoms: _539  and  _542
REMARK  216  A    between atoms: _542  and  _543
REMARK  217  A    between atoms: _546  and  _548
REMARK  218  A    between atoms: _548  and  _549
REMARK  219  A    between atoms: _548  and  _551
REMARK  220  A    between atoms: _551  and  _552
REMARK  221  A    between atoms: _552  and  _553
REMARK  222  A    between atoms: _558  and  _560
REMARK  223  A    between atoms: _560  and  _561
REMARK  224  A    between atoms: _563  and  _565
REMARK  225  A    between atoms: _565  and  _566
REMARK  226  A    between atoms: _565  and  _568
REMARK  227  A    between atoms: _568  and  _569
REMARK  228  A    between atoms: _572  and  _574
REMARK  229  A    between atoms: _574  and  _575
REMARK  230  A    between atoms: _574  and  _577
REMARK  231  A    between atoms: _577  and  _578
REMARK  232  A    between atoms: _580  and  _582
REMARK  233  A    between atoms: _582  and  _583
REMARK  234  A    between atoms: _582  and  _585
REMARK  235  A    between atoms: _585  and  _586
REMARK  236  A    between atoms: _589  and  _591
REMARK  237  A    between atoms: _591  and  _592
REMARK  238  A    between atoms: _591  and  _594
REMARK  239  A    between atoms: _594  and  _595
REMARK  240  A    between atoms: _595  and  _596
REMARK  241  A    between atoms: _599  and  _601
REMARK  242  A    between atoms: _601  and  _602
REMARK  243  A    between atoms: _601  and  _604
REMARK  244  A    between atoms: _604  and  _605
REMARK  245  A    between atoms: _610  and  _612
REMARK  246  A    between atoms: _612  and  _613
REMARK  247  A    between atoms: _612  and  _615
REMARK  248  A    between atoms: _615  and  _616
REMARK  249  A    between atoms: _619  and  _621
REMARK  250  A    between atoms: _621  and  _622
REMARK  251  A    between atoms: _625  and  _627
REMARK  252  A    between atoms: _627  and  _628
REMARK  253  A    between atoms: _627  and  _630
REMARK  254  A    between atoms: _630  and  _631
REMARK  255  A    between atoms: _637  and  _639
REMARK  256  A    between atoms: _639  and  _640
REMARK  257  A    between atoms: _642  and  _644
REMARK  258  A    between atoms: _644  and  _645
REMARK  259  A    between atoms: _644  and  _647
REMARK  260  A    between atoms: _647  and  _648
REMARK  261  A    between atoms: _650  and  _652
REMARK  262  A    between atoms: _652  and  _653
REMARK                            x       y       z     vdW  Elec       q    Type
REMARK                         _______ _______ _______ _____ _____    ______ ____
ROOT
ATOM      1  O   HOH     1       5.862 -10.577  35.026  0.00  0.00    +0.000 OA
ENDROOT
TORSDOF 0
REMARK  Name = ../refined-set-2016/2gvj/2gvj_pocket.pdb
REMARK  262 active torsions:
REMARK  status: ('A' for Active; 'I' for Inactive)
REMARK    1  A    between atoms: _1  and  _3
REMARK    2  A    between atoms: _3  and  _4
REMARK    3  A    between atoms: _3  and  _6
REMARK    4  A    between atoms: _6  and  _7
REMARK    5  A    between atoms: _10  and  _12
REMARK    6  A    between atoms: _12  and  _13
REMARK    7  A    between atoms: _12  and  _15
REMARK    8  A    between atoms: _15  and  _16
REMARK    9  A    between atoms: _19  and  _21
REMARK   10  A    between atoms: _21  and  _22
REMARK   11  A    between atoms: _21  and  _24
REMARK   12  A    between atoms: _24  and  _25
REMARK   13  A    between atoms: _27  and  _29
REMARK   14  A    between atoms: _29  and  _30
REMARK   15  A    between atoms: _29  and  _32
REMARK   16  A    between atoms: _32  and  _33
REMARK   17  A    between atoms: _38  and  _39
REMARK   18  A    between atoms: _41  and  _43
REMARK   19  A    between atoms: _43  and  _44
REMARK   20  A    between atoms: _43  and  _46
REMARK   21  A    between atoms: _46  and  _47
REMARK   22  A    between atoms: _47  and  _48
REMARK   23  A    between atoms: _48  and  _49
REMARK   24  A    between atoms: _49  and  _50
REMARK   25  A    between atoms: _54  and  _56
REMARK   26  A    between atoms: _56  and  _57
REMARK   27  A    between atoms: _56  and  _59
REMARK   28  A    between atoms: _59  and  _60
REMARK   29  A    between atoms: _65  and  _67
REMARK   30  A    between atoms: _67  and  _68
REMARK   31  A    between atoms: _67  and  _70
REMARK   32  A    between atoms: _70  and  _71
REMARK   33  A    between atoms: _71  and  _72
REMARK   34  A    between atoms: _75  and  _77
REMARK   35  A    between atoms: _77  and  _78
REMARK   36  A    between atoms: _77  and  _80
REMARK   37  A    between atoms: _80  and  _81
REMARK   38  A    between atoms: _84  and  _86
REMARK   39  A    between atoms: _86  and  _87
REMARK   40  A    between atoms: _86  and  _89
REMARK   41  A    between atoms: _89  and  _90
REMARK   42  A    between atoms: _90  and  _91
REMARK   43  A    between atoms: _91  and  _92
REMARK   44  A    between atoms: _101  and  _103
REMARK   45  A    between atoms: _103  and  _104
REMARK   46  A    between atoms: _103  and  _106
REMARK   47  A    between atoms: _106  and  _107
REMARK   48  A    between atoms: _110  and  _112
REMARK   49  A    between atoms: _112  and  _113
REMARK   50  A    between atoms: _112  and  _115
REMARK   51  A    between atoms: _115  and  _116
REMARK   52  A    between atoms: _119  and  _121
REMARK   53  A    between atoms: _121  and  _122
REMARK   54  A    between atoms: _124  and  _126
REMARK   55  A    between atoms: _126  and  _127
REMARK   56  A    between atoms: _126  and  _129
REMARK   57  A    between atoms: _129  and  _130
REMARK   58  A    between atoms: _130  and  _131
REMARK   59  A    between atoms: _134  and  _136
REMARK   60  A    between atoms: _136  and  _137
REMARK   61  A    between atoms: _136  and  _139
REMARK   62  A    between atoms: _139  and  _140
REMARK   63  A    between atoms: _145  and  _146
REMARK   64  A    between atoms: _148  and  _150
REMARK   65  A    between atoms: _150  and  _151
REMARK   66  A    between atoms: _150  and  _153
REMARK   67  A    between atoms: _153  and  _154
REMARK   68  A    between atoms: _154  and  _155
REMARK   69  A    between atoms: _155  and  _156
REMARK   70  A    between atoms: _156  and  _157
REMARK   71  A    between atoms: _161  and  _163
REMARK   72  A    between atoms: _163  and  _164
REMARK   73  A    between atoms: _163  and  _166
REMARK   74  A    between atoms: _166  and  _167
REMARK   75  A    between atoms: _170  and  _172
REMARK   76  A    between atoms: _172  and  _173
REMARK   77  A    between atoms: _172  and  _175
REMARK   78  A    between atoms: _175  and  _176
REMARK   79  A    between atoms: _181  and  _183
REMARK   80  A    between atoms: _183  and  _184
REMARK   81  A    between atoms: _183  and  _186
REMARK   82  A    between atoms: _186  and  _187
REMARK   83  A    between atoms: _190  and  _192
REMARK   84  A    between atoms: _192  and  _193
REMARK   85  A    between atoms: _192  and  _195
REMARK   86  A    between atoms: _195  and  _196
REMARK   87  A    between atoms: _202  and  _204
REMARK   88  A    between atoms: _204  and  _205
REMARK   89  A    between atoms: _207  and  _209
REMARK   90  A    between atoms: _209  and  _210
REMARK   91  A    between atoms: _209  and  _212
REMARK   92  A    between atoms: _212  and  _213
REMARK   93  A    between atoms: _218  and  _219
REMARK   94  A    between atoms: _221  and  _223
REMARK   95  A    between atoms: _223  and  _224
REMARK   96  A    between atoms: _223  and  _226
REMARK   97  A    between atoms: _226  and  _227
REMARK   98  A    between atoms: _227  and  _228
REMARK   99  A    between atoms: _228  and  _229
REMARK  100  A    between atoms: _238  and  _240
REMARK  101  A    between atoms: _240  and  _241
REMARK  102  A    between atoms: _243  and  _245
REMARK  103  A    between atoms: _245  and  _246
REMARK  104  A    between atoms: _248  and  _250
REMARK  105  A    between atoms: _250  and  _251
REMARK  106  A    between atoms: _250  and  _253
REMARK  107  A    between atoms: _253  and  _254
REMARK  108  A    between atoms: _257  and  _259
REMARK  109  A    between atoms: _259  and  _260
REMARK  110  A    between atoms: _259  and  _262
REMARK  111  A    between atoms: _262  and  _263
REMARK  112  A    between atoms: _266  and  _268
REMARK  113  A    between atoms: _268  and  _269
REMARK  114  A    between atoms: _268  and  _271
REMARK  115  A    between atoms: _271  and  _272
REMARK  116  A    between atoms: _275  and  _277
REMARK  117  A    between atoms: _277  and  _278
REMARK  118  A    between atoms: _277  and  _280
REMARK  119  A    between atoms: _280  and  _281
REMARK  120  A    between atoms: _286  and  _287
REMARK  121  A    between atoms: _289  and  _291
REMARK  122  A    between atoms: _291  and  _292
REMARK  123  A    between atoms: _291  and  _294
REMARK  124  A    between atoms: _294  and  _295
REMARK  125  A    between atoms: _297  and  _299
REMARK  126  A    between atoms: _299  and  _300
REMARK  127  A    between atoms: _299  and  _302
REMARK  128  A    between atoms: _306  and  _307
REMARK  129  A    between atoms: _312  and  _314
REMARK  130  A    between atoms: _314  and  _315
REMARK  131  A    between atoms: _318  and  _320
REMARK  132  A    between atoms: _320  and  _321
REMARK  133  A    between atoms: _324  and  _326
REMARK  134  A    between atoms: _326  and  _327
REMARK  135  A    between atoms: _326  and  _329
REMARK  136  A    between atoms: _329  and  _330
REMARK  137  A    between atoms: _330  and  _331
REMARK  138  A    between atoms: _334  and  _336
REMARK  139  A    between atoms: _336  and  _337
REMARK  140  A    between atoms: _336  and  _339
REMARK  141  A    between atoms: _339  and  _340
REMARK  142  A    between atoms: _346  and  _347
REMARK  143  A    between atoms: _352  and  _354
REMARK  144  A    between atoms: _354  and  _355
REMARK  145  A    between atoms: _354  and  _357
REMARK  146  A    between atoms: _360  and  _362
REMARK  147  A    between atoms: _362  and  _363
REMARK  148  A    between atoms: _362  and  _365
REMARK  149  A    between atoms: _365  and  _366
REMARK  150  A    between atoms: _368  and  _370
REMARK  151  A    between atoms: _370  and  _371
REMARK  152  A    between atoms: _370  and  _373
REMARK  153  A    between atoms: _376  and  _378
REMARK  154  A    between atoms: _378  and  _379
REMARK  155  A    between atoms: _378  and  _381
REMARK  156  A    between atoms: _384  and  _386
REMARK  157  A    between atoms: _386  and  _387
REMARK  158  A    between atoms: _386  and  _389
REMARK  159  A    between atoms: _389  and  _390
REMARK  160  A    between atoms: _393  and  _395
REMARK  161  A    between atoms: _395  and  _396
REMARK  162  A    between atoms: _395  and  _398
REMARK  163  A    between atoms: _398  and  _399
REMARK  164  A    between atoms: _399  and  _400
REMARK  165  A    between atoms: _405  and  _407
REMARK  166  A    between atoms: _407  and  _408
REMARK  167  A    between atoms: _412  and  _413
REMARK  168  A    between atoms: _418  and  _420
REMARK  169  A    between atoms: _420  and  _421
REMARK  170  A    between atoms: _420  and  _423
REMARK  171  A    between atoms: _423  and  _424
REMARK  172  A    between atoms: _427  and  _429
REMARK  173  A    between atoms: _429  and  _430
REMARK  174  A    between atoms: _429  and  _432
REMARK  175  A    between atoms: _432  and  _433
REMARK  176  A    between atoms: _436  and  _438
REMARK  177  A    between atoms: _438  and  _439
REMARK  178  A    between atoms: _438  and  _441
REMARK  179  A    between atoms: _441  and  _442
REMARK  180  A    between atoms: _445  and  _447
REMARK  181  A    between atoms: _447  and  _448
REMARK  182  A    between atoms: _447  and  _450
REMARK  183  A    between atoms: _450  and  _451
REMARK  184  A    between atoms: _451  and  _452
REMARK  185  A    between atoms: _452  and  _453
REMARK  186  A    between atoms: _463  and  _464
REMARK  187  A    between atoms: _469  and  _471
REMARK  188  A    between atoms: _471  and  _472
REMARK  189  A    between atoms: _471  and  _474
REMARK  190  A    between atoms: _474  and  _475
REMARK  191  A    between atoms: _478  and  _480
REMARK  192  A    between atoms: _480  and  _481
REMARK  193  A    between atoms: _480  and  _483
REMARK  194  A    between atoms: _483  and  _484
REMARK  195  A    between atoms: _487  and  _489
REMARK  196  A    between atoms: _489  and  _490
REMARK  197  A    between atoms: _489  and  _492
REMARK  198  A    between atoms: _492  and  _493
REMARK  199  A    between atoms: _497  and  _498
REMARK  200  A    between atoms: _503  and  _505
REMARK  201  A    between atoms: _505  and  _506
REMARK  202  A    between atoms: _505  and  _508
REMARK  203  A    between atoms: _508  and  _509
REMARK  204  A    between atoms: _512  and  _514
REMARK  205  A    between atoms: _514  and  _515
REMARK  206  A    between atoms: _514  and  _517
REMARK  207  A    between atoms: _517  and  _518
REMARK  208  A    between atoms: _518  and  _519
REMARK  209  A    between atoms: _519  and  _520
REMARK  210  A    between atoms: _529  and  _531
REMARK  211  A    between atoms: _531  and  _532
REMARK  212  A    between atoms: _531  and  _534
REMARK  213  A    between atoms: _537  and  _539
REMARK  214  A    between atoms: _539  and  _540
REMARK  215  A    between atoms: _539  and  _542
REMARK  216  A    between atoms: _542  and  _543
REMARK  217  A    between atoms: _546  and  _548
REMARK  218  A    between atoms: _548  and  _549
REMARK  219  A    between atoms: _548  and  _551
REMARK  220  A    between atoms: _551  and  _552
REMARK  221  A    between atoms: _552  and  _553
REMARK  222  A    between atoms: _558  and  _560
REMARK  223  A    between atoms: _560  and  _561
REMARK  224  A    between atoms: _563  and  _565
REMARK  225  A    between atoms: _565  and  _566
REMARK  226  A    between atoms: _565  and  _568
REMARK  227  A    between atoms: _568  and  _569
REMARK  228  A    between atoms: _572  and  _574
REMARK  229  A    between atoms: _574  and  _575
REMARK  230  A    between atoms: _574  and  _577
REMARK  231  A    between atoms: _577  and  _578
REMARK  232  A    between atoms: _580  and  _582
REMARK  233  A    between atoms: _582  and  _583
REMARK  234  A    between atoms: _582  and  _585
REMARK  235  A    between atoms: _585  and  _586
REMARK  236  A    between atoms: _589  and  _591
REMARK  237  A    between atoms: _591  and  _592
REMARK  238  A    between atoms: _591  and  _594
REMARK  239  A    between atoms: _594  and  _595
REMARK  240  A    between atoms: _595  and  _596
REMARK  241  A    between atoms: _599  and  _601
REMARK  242  A    between atoms: _601  and  _602
REMARK  243  A    between atoms: _601  and  _604
REMARK  244  A    between atoms: _604  and  _605
REMARK  245  A    between atoms: _610  and  _612
REMARK  246  A    between atoms: _612  and  _613
REMARK  247  A    between atoms: _612  and  _615
REMARK  248  A    between atoms: _615  and  _616
REMARK  249  A    between atoms: _619  and  _621
REMARK  250  A    between atoms: _621  and  _622
REMARK  251  A    between atoms: _625  and  _627
REMARK  252  A    between atoms: _627  and  _628
REMARK  253  A    between atoms: _627  and  _630
REMARK  254  A    between atoms: _630  and  _631
REMARK  255  A    between atoms: _637  and  _639
REMARK  256  A    between atoms: _639  and  _640
REMARK  257  A    between atoms: _642  and  _644
REMARK  258  A    between atoms: _644  and  _645
REMARK  259  A    between atoms: _644  and  _647
REMARK  260  A    between atoms: _647  and  _648
REMARK  261  A    between atoms: _650  and  _652
REMARK  262  A    between atoms: _652  and  _653
REMARK                            x       y       z     vdW  Elec       q    Type
REMARK                         _______ _______ _______ _____ _____    ______ ____
ROOT
ATOM      1  O   HOH     1       2.619   2.000  51.783  0.00  0.00    +0.000 OA
ENDROOT
TORSDOF 0
REMARK  Name = ../refined-set-2016/2gvj/2gvj_pocket.pdb
REMARK  262 active torsions:
REMARK  status: ('A' for Active; 'I' for Inactive)
REMARK    1  A    between atoms: _1  and  _3
REMARK    2  A    between atoms: _3  and  _4
REMARK    3  A    between atoms: _3  and  _6
REMARK    4  A    between atoms: _6  and  _7
REMARK    5  A    between atoms: _10  and  _12
REMARK    6  A    between atoms: _12  and  _13
REMARK    7  A    between atoms: _12  and  _15
REMARK    8  A    between atoms: _15  and  _16
REMARK    9  A    between atoms: _19  and  _21
REMARK   10  A    between atoms: _21  and  _22
REMARK   11  A    between atoms: _21  and  _24
REMARK   12  A    between atoms: _24  and  _25
REMARK   13  A    between atoms: _27  and  _29
REMARK   14  A    between atoms: _29  and  _30
REMARK   15  A    between atoms: _29  and  _32
REMARK   16  A    between atoms: _32  and  _33
REMARK   17  A    between atoms: _38  and  _39
REMARK   18  A    between atoms: _41  and  _43
REMARK   19  A    between atoms: _43  and  _44
REMARK   20  A    between atoms: _43  and  _46
REMARK   21  A    between atoms: _46  and  _47
REMARK   22  A    between atoms: _47  and  _48
REMARK   23  A    between atoms: _48  and  _49
REMARK   24  A    between atoms: _49  and  _50
REMARK   25  A    between atoms: _54  and  _56
REMARK   26  A    between atoms: _56  and  _57
REMARK   27  A    between atoms: _56  and  _59
REMARK   28  A    between atoms: _59  and  _60
REMARK   29  A    between atoms: _65  and  _67
REMARK   30  A    between atoms: _67  and  _68
REMARK   31  A    between atoms: _67  and  _70
REMARK   32  A    between atoms: _70  and  _71
REMARK   33  A    between atoms: _71  and  _72
REMARK   34  A    between atoms: _75  and  _77
REMARK   35  A    between atoms: _77  and  _78
REMARK   36  A    between atoms: _77  and  _80
REMARK   37  A    between atoms: _80  and  _81
REMARK   38  A    between atoms: _84  and  _86
REMARK   39  A    between atoms: _86  and  _87
REMARK   40  A    between atoms: _86  and  _89
REMARK   41  A    between atoms: _89  and  _90
REMARK   42  A    between atoms: _90  and  _91
REMARK   43  A    between atoms: _91  and  _92
REMARK   44  A    between atoms: _101  and  _103
REMARK   45  A    between atoms: _103  and  _104
REMARK   46  A    between atoms: _103  and  _106
REMARK   47  A    between atoms: _106  and  _107
REMARK   48  A    between atoms: _110  and  _112
REMARK   49  A    between atoms: _112  and  _113
REMARK   50  A    between atoms: _112  and  _115
REMARK   51  A    between atoms: _115  and  _116
REMARK   52  A    between atoms: _119  and  _121
REMARK   53  A    between atoms: _121  and  _122
REMARK   54  A    between atoms: _124  and  _126
REMARK   55  A    between atoms: _126  and  _127
REMARK   56  A    between atoms: _126  and  _129
REMARK   57  A    between atoms: _129  and  _130
REMARK   58  A    between atoms: _130  and  _131
REMARK   59  A    between atoms: _134  and  _136
REMARK   60  A    between atoms: _136  and  _137
REMARK   61  A    between atoms: _136  and  _139
REMARK   62  A    between atoms: _139  and  _140
REMARK   63  A    between atoms: _145  and  _146
REMARK   64  A    between atoms: _148  and  _150
REMARK   65  A    between atoms: _150  and  _151
REMARK   66  A    between atoms: _150  and  _153
REMARK   67  A    between atoms: _153  and  _154
REMARK   68  A    between atoms: _154  and  _155
REMARK   69  A    between atoms: _155  and  _156
REMARK   70  A    between atoms: _156  and  _157
REMARK   71  A    between atoms: _161  and  _163
REMARK   72  A    between atoms: _163  and  _164
REMARK   73  A    between atoms: _163  and  _166
REMARK   74  A    between atoms: _166  and  _167
REMARK   75  A    between atoms: _170  and  _172
REMARK   76  A    between atoms: _172  and  _173
REMARK   77  A    between atoms: _172  and  _175
REMARK   78  A    between atoms: _175  and  _176
REMARK   79  A    between atoms: _181  and  _183
REMARK   80  A    between atoms: _183  and  _184
REMARK   81  A    between atoms: _183  and  _186
REMARK   82  A    between atoms: _186  and  _187
REMARK   83  A    between atoms: _190  and  _192
REMARK   84  A    between atoms: _192  and  _193
REMARK   85  A    between atoms: _192  and  _195
REMARK   86  A    between atoms: _195  and  _196
REMARK   87  A    between atoms: _202  and  _204
REMARK   88  A    between atoms: _204  and  _205
REMARK   89  A    between atoms: _207  and  _209
REMARK   90  A    between atoms: _209  and  _210
REMARK   91  A    between atoms: _209  and  _212
REMARK   92  A    between atoms: _212  and  _213
REMARK   93  A    between atoms: _218  and  _219
REMARK   94  A    between atoms: _221  and  _223
REMARK   95  A    between atoms: _223  and  _224
REMARK   96  A    between atoms: _223  and  _226
REMARK   97  A    between atoms: _226  and  _227
REMARK   98  A    between atoms: _227  and  _228
REMARK   99  A    between atoms: _228  and  _229
REMARK  100  A    between atoms: _238  and  _240
REMARK  101  A    between atoms: _240  and  _241
REMARK  102  A    between atoms: _243  and  _245
REMARK  103  A    between atoms: _245  and  _246
REMARK  104  A    between atoms: _248  and  _250
REMARK  105  A    between atoms: _250  and  _251
REMARK  106  A    between atoms: _250  and  _253
REMARK  107  A    between atoms: _253  and  _254
REMARK  108  A    between atoms: _257  and  _259
REMARK  109  A    between atoms: _259  and  _260
REMARK  110  A    between atoms: _259  and  _262
REMARK  111  A    between atoms: _262  and  _263
REMARK  112  A    between atoms: _266  and  _268
REMARK  113  A    between atoms: _268  and  _269
REMARK  114  A    between atoms: _268  and  _271
REMARK  115  A    between atoms: _271  and  _272
REMARK  116  A    between atoms: _275  and  _277
REMARK  117  A    between atoms: _277  and  _278
REMARK  118  A    between atoms: _277  and  _280
REMARK  119  A    between atoms: _280  and  _281
REMARK  120  A    between atoms: _286  and  _287
REMARK  121  A    between atoms: _289  and  _291
REMARK  122  A    between atoms: _291  and  _292
REMARK  123  A    between atoms: _291  and  _294
REMARK  124  A    between atoms: _294  and  _295
REMARK  125  A    between atoms: _297  and  _299
REMARK  126  A    between atoms: _299  and  _300
REMARK  127  A    between atoms: _299  and  _302
REMARK  128  A    between atoms: _306  and  _307
REMARK  129  A    between atoms: _312  and  _314
REMARK  130  A    between atoms: _314  and  _315
REMARK  131  A    between atoms: _318  and  _320
REMARK  132  A    between atoms: _320  and  _321
REMARK  133  A    between atoms: _324  and  _326
REMARK  134  A    between atoms: _326  and  _327
REMARK  135  A    between atoms: _326  and  _329
REMARK  136  A    between atoms: _329  and  _330
REMARK  137  A    between atoms: _330  and  _331
REMARK  138  A    between atoms: _334  and  _336
REMARK  139  A    between atoms: _336  and  _337
REMARK  140  A    between atoms: _336  and  _339
REMARK  141  A    between atoms: _339  and  _340
REMARK  142  A    between atoms: _346  and  _347
REMARK  143  A    between atoms: _352  and  _354
REMARK  144  A    between atoms: _354  and  _355
REMARK  145  A    between atoms: _354  and  _357
REMARK  146  A    between atoms: _360  and  _362
REMARK  147  A    between atoms: _362  and  _363
REMARK  148  A    between atoms: _362  and  _365
REMARK  149  A    between atoms: _365  and  _366
REMARK  150  A    between atoms: _368  and  _370
REMARK  151  A    between atoms: _370  and  _371
REMARK  152  A    between atoms: _370  and  _373
REMARK  153  A    between atoms: _376  and  _378
REMARK  154  A    between atoms: _378  and  _379
REMARK  155  A    between atoms: _378  and  _381
REMARK  156  A    between atoms: _384  and  _386
REMARK  157  A    between atoms: _386  and  _387
REMARK  158  A    between atoms: _386  and  _389
REMARK  159  A    between atoms: _389  and  _390
REMARK  160  A    between atoms: _393  and  _395
REMARK  161  A    between atoms: _395  and  _396
REMARK  162  A    between atoms: _395  and  _398
REMARK  163  A    between atoms: _398  and  _399
REMARK  164  A    between atoms: _399  and  _400
REMARK  165  A    between atoms: _405  and  _407
REMARK  166  A    between atoms: _407  and  _408
REMARK  167  A    between atoms: _412  and  _413
REMARK  168  A    between atoms: _418  and  _420
REMARK  169  A    between atoms: _420  and  _421
REMARK  170  A    between atoms: _420  and  _423
REMARK  171  A    between atoms: _423  and  _424
REMARK  172  A    between atoms: _427  and  _429
REMARK  173  A    between atoms: _429  and  _430
REMARK  174  A    between atoms: _429  and  _432
REMARK  175  A    between atoms: _432  and  _433
REMARK  176  A    between atoms: _436  and  _438
REMARK  177  A    between atoms: _438  and  _439
REMARK  178  A    between atoms: _438  and  _441
REMARK  179  A    between atoms: _441  and  _442
REMARK  180  A    between atoms: _445  and  _447
REMARK  181  A    between atoms: _447  and  _448
REMARK  182  A    between atoms: _447  and  _450
REMARK  183  A    between atoms: _450  and  _451
REMARK  184  A    between atoms: _451  and  _452
REMARK  185  A    between atoms: _452  and  _453
REMARK  186  A    between atoms: _463  and  _464
REMARK  187  A    between atoms: _469  and  _471
REMARK  188  A    between atoms: _471  and  _472
REMARK  189  A    between atoms: _471  and  _474
REMARK  190  A    between atoms: _474  and  _475
REMARK  191  A    between atoms: _478  and  _480
REMARK  192  A    between atoms: _480  and  _481
REMARK  193  A    between atoms: _480  and  _483
REMARK  194  A    between atoms: _483  and  _484
REMARK  195  A    between atoms: _487  and  _489
REMARK  196  A    between atoms: _489  and  _490
REMARK  197  A    between atoms: _489  and  _492
REMARK  198  A    between atoms: _492  and  _493
REMARK  199  A    between atoms: _497  and  _498
REMARK  200  A    between atoms: _503  and  _505
REMARK  201  A    between atoms: _505  and  _506
REMARK  202  A    between atoms: _505  and  _508
REMARK  203  A    between atoms: _508  and  _509
REMARK  204  A    between atoms: _512  and  _514
REMARK  205  A    between atoms: _514  and  _515
REMARK  206  A    between atoms: _514  and  _517
REMARK  207  A    between atoms: _517  and  _518
REMARK  208  A    between atoms: _518  and  _519
REMARK  209  A    between atoms: _519  and  _520
REMARK  210  A    between atoms: _529  and  _531
REMARK  211  A    between atoms: _531  and  _532
REMARK  212  A    between atoms: _531  and  _534
REMARK  213  A    between atoms: _537  and  _539
REMARK  214  A    between atoms: _539  and  _540
REMARK  215  A    between atoms: _539  and  _542
REMARK  216  A    between atoms: _542  and  _543
REMARK  217  A    between atoms: _546  and  _548
REMARK  218  A    between atoms: _548  and  _549
REMARK  219  A    between atoms: _548  and  _551
REMARK  220  A    between atoms: _551  and  _552
REMARK  221  A    between atoms: _552  and  _553
REMARK  222  A    between atoms: _558  and  _560
REMARK  223  A    between atoms: _560  and  _561
REMARK  224  A    between atoms: _563  and  _565
REMARK  225  A    between atoms: _565  and  _566
REMARK  226  A    between atoms: _565  and  _568
REMARK  227  A    between atoms: _568  and  _569
REMARK  228  A    between atoms: _572  and  _574
REMARK  229  A    between atoms: _574  and  _575
REMARK  230  A    between atoms: _574  and  _577
REMARK  231  A    between atoms: _577  and  _578
REMARK  232  A    between atoms: _580  and  _582
REMARK  233  A    between atoms: _582  and  _583
REMARK  234  A    between atoms: _582  and  _585
REMARK  235  A    between atoms: _585  and  _586
REMARK  236  A    between atoms: _589  and  _591
REMARK  237  A    between atoms: _591  and  _592
REMARK  238  A    between atoms: _591  and  _594
REMARK  239  A    between atoms: _594  and  _595
REMARK  240  A    between atoms: _595  and  _596
REMARK  241  A    between atoms: _599  and  _601
REMARK  242  A    between atoms: _601  and  _602
REMARK  243  A    between atoms: _601  and  _604
REMARK  244  A    between atoms: _604  and  _605
REMARK  245  A    between atoms: _610  and  _612
REMARK  246  A    between atoms: _612  and  _613
REMARK  247  A    between atoms: _612  and  _615
REMARK  248  A    between atoms: _615  and  _616
REMARK  249  A    between atoms: _619  and  _621
REMARK  250  A    between atoms: _621  and  _622
REMARK  251  A    between atoms: _625  and  _627
REMARK  252  A    between atoms: _627  and  _628
REMARK  253  A    between atoms: _627  and  _630
REMARK  254  A    between atoms: _630  and  _631
REMARK  255  A    between atoms: _637  and  _639
REMARK  256  A    between atoms: _639  and  _640
REMARK  257  A    between atoms: _642  and  _644
REMARK  258  A    between atoms: _644  and  _645
REMARK  259  A    between atoms: _644  and  _647
REMARK  260  A    between atoms: _647  and  _648
REMARK  261  A    between atoms: _650  and  _652
REMARK  262  A    between atoms: _652  and  _653
REMARK                            x       y       z     vdW  Elec       q    Type
REMARK                         _______ _______ _______ _____ _____    ______ ____
ROOT
ATOM      1  O   HOH     1       5.008  -3.175  56.527  0.00  0.00    +0.000 OA
ENDROOT
TORSDOF 0
REMARK  Name = ../refined-set-2016/2gvj/2gvj_pocket.pdb
REMARK  262 active torsions:
REMARK  status: ('A' for Active; 'I' for Inactive)
REMARK    1  A    between atoms: _1  and  _3
REMARK    2  A    between atoms: _3  and  _4
REMARK    3  A    between atoms: _3  and  _6
REMARK    4  A    between atoms: _6  and  _7
REMARK    5  A    between atoms: _10  and  _12
REMARK    6  A    between atoms: _12  and  _13
REMARK    7  A    between atoms: _12  and  _15
REMARK    8  A    between atoms: _15  and  _16
REMARK    9  A    between atoms: _19  and  _21
REMARK   10  A    between atoms: _21  and  _22
REMARK   11  A    between atoms: _21  and  _24
REMARK   12  A    between atoms: _24  and  _25
REMARK   13  A    between atoms: _27  and  _29
REMARK   14  A    between atoms: _29  and  _30
REMARK   15  A    between atoms: _29  and  _32
REMARK   16  A    between atoms: _32  and  _33
REMARK   17  A    between atoms: _38  and  _39
REMARK   18  A    between atoms: _41  and  _43
REMARK   19  A    between atoms: _43  and  _44
REMARK   20  A    between atoms: _43  and  _46
REMARK   21  A    between atoms: _46  and  _47
REMARK   22  A    between atoms: _47  and  _48
REMARK   23  A    between atoms: _48  and  _49
REMARK   24  A    between atoms: _49  and  _50
REMARK   25  A    between atoms: _54  and  _56
REMARK   26  A    between atoms: _56  and  _57
REMARK   27  A    between atoms: _56  and  _59
REMARK   28  A    between atoms: _59  and  _60
REMARK   29  A    between atoms: _65  and  _67
REMARK   30  A    between atoms: _67  and  _68
REMARK   31  A    between atoms: _67  and  _70
REMARK   32  A    between atoms: _70  and  _71
REMARK   33  A    between atoms: _71  and  _72
REMARK   34  A    between atoms: _75  and  _77
REMARK   35  A    between atoms: _77  and  _78
REMARK   36  A    between atoms: _77  and  _80
REMARK   37  A    between atoms: _80  and  _81
REMARK   38  A    between atoms: _84  and  _86
REMARK   39  A    between atoms: _86  and  _87
REMARK   40  A    between atoms: _86  and  _89
REMARK   41  A    between atoms: _89  and  _90
REMARK   42  A    between atoms: _90  and  _91
REMARK   43  A    between atoms: _91  and  _92
REMARK   44  A    between atoms: _101  and  _103
REMARK   45  A    between atoms: _103  and  _104
REMARK   46  A    between atoms: _103  and  _106
REMARK   47  A    between atoms: _106  and  _107
REMARK   48  A    between atoms: _110  and  _112
REMARK   49  A    between atoms: _112  and  _113
REMARK   50  A    between atoms: _112  and  _115
REMARK   51  A    between atoms: _115  and  _116
REMARK   52  A    between atoms: _119  and  _121
REMARK   53  A    between atoms: _121  and  _122
REMARK   54  A    between atoms: _124  and  _126
REMARK   55  A    between atoms: _126  and  _127
REMARK   56  A    between atoms: _126  and  _129
REMARK   57  A    between atoms: _129  and  _130
REMARK   58  A    between atoms: _130  and  _131
REMARK   59  A    between atoms: _134  and  _136
REMARK   60  A    between atoms: _136  and  _137
REMARK   61  A    between atoms: _136  and  _139
REMARK   62  A    between atoms: _139  and  _140
REMARK   63  A    between atoms: _145  and  _146
REMARK   64  A    between atoms: _148  and  _150
REMARK   65  A    between atoms: _150  and  _151
REMARK   66  A    between atoms: _150  and  _153
REMARK   67  A    between atoms: _153  and  _154
REMARK   68  A    between atoms: _154  and  _155
REMARK   69  A    between atoms: _155  and  _156
REMARK   70  A    between atoms: _156  and  _157
REMARK   71  A    between atoms: _161  and  _163
REMARK   72  A    between atoms: _163  and  _164
REMARK   73  A    between atoms: _163  and  _166
REMARK   74  A    between atoms: _166  and  _167
REMARK   75  A    between atoms: _170  and  _172
REMARK   76  A    between atoms: _172  and  _173
REMARK   77  A    between atoms: _172  and  _175
REMARK   78  A    between atoms: _175  and  _176
REMARK   79  A    between atoms: _181  and  _183
REMARK   80  A    between atoms: _183  and  _184
REMARK   81  A    between atoms: _183  and  _186
REMARK   82  A    between atoms: _186  and  _187
REMARK   83  A    between atoms: _190  and  _192
REMARK   84  A    between atoms: _192  and  _193
REMARK   85  A    between atoms: _192  and  _195
REMARK   86  A    between atoms: _195  and  _196
REMARK   87  A    between atoms: _202  and  _204
REMARK   88  A    between atoms: _204  and  _205
REMARK   89  A    between atoms: _207  and  _209
REMARK   90  A    between atoms: _209  and  _210
REMARK   91  A    between atoms: _209  and  _212
REMARK   92  A    between atoms: _212  and  _213
REMARK   93  A    between atoms: _218  and  _219
REMARK   94  A    between atoms: _221  and  _223
REMARK   95  A    between atoms: _223  and  _224
REMARK   96  A    between atoms: _223  and  _226
REMARK   97  A    between atoms: _226  and  _227
REMARK   98  A    between atoms: _227  and  _228
REMARK   99  A    between atoms: _228  and  _229
REMARK  100  A    between atoms: _238  and  _240
REMARK  101  A    between atoms: _240  and  _241
REMARK  102  A    between atoms: _243  and  _245
REMARK  103  A    between atoms: _245  and  _246
REMARK  104  A    between atoms: _248  and  _250
REMARK  105  A    between atoms: _250  and  _251
REMARK  106  A    between atoms: _250  and  _253
REMARK  107  A    between atoms: _253  and  _254
REMARK  108  A    between atoms: _257  and  _259
REMARK  109  A    between atoms: _259  and  _260
REMARK  110  A    between atoms: _259  and  _262
REMARK  111  A    between atoms: _262  and  _263
REMARK  112  A    between atoms: _266  and  _268
REMARK  113  A    between atoms: _268  and  _269
REMARK  114  A    between atoms: _268  and  _271
REMARK  115  A    between atoms: _271  and  _272
REMARK  116  A    between atoms: _275  and  _277
REMARK  117  A    between atoms: _277  and  _278
REMARK  118  A    between atoms: _277  and  _280
REMARK  119  A    between atoms: _280  and  _281
REMARK  120  A    between atoms: _286  and  _287
REMARK  121  A    between atoms: _289  and  _291
REMARK  122  A    between atoms: _291  and  _292
REMARK  123  A    between atoms: _291  and  _294
REMARK  124  A    between atoms: _294  and  _295
REMARK  125  A    between atoms: _297  and  _299
REMARK  126  A    between atoms: _299  and  _300
REMARK  127  A    between atoms: _299  and  _302
REMARK  128  A    between atoms: _306  and  _307
REMARK  129  A    between atoms: _312  and  _314
REMARK  130  A    between atoms: _314  and  _315
REMARK  131  A    between atoms: _318  and  _320
REMARK  132  A    between atoms: _320  and  _321
REMARK  133  A    between atoms: _324  and  _326
REMARK  134  A    between atoms: _326  and  _327
REMARK  135  A    between atoms: _326  and  _329
REMARK  136  A    between atoms: _329  and  _330
REMARK  137  A    between atoms: _330  and  _331
REMARK  138  A    between atoms: _334  and  _336
REMARK  139  A    between atoms: _336  and  _337
REMARK  140  A    between atoms: _336  and  _339
REMARK  141  A    between atoms: _339  and  _340
REMARK  142  A    between atoms: _346  and  _347
REMARK  143  A    between atoms: _352  and  _354
REMARK  144  A    between atoms: _354  and  _355
REMARK  145  A    between atoms: _354  and  _357
REMARK  146  A    between atoms: _360  and  _362
REMARK  147  A    between atoms: _362  and  _363
REMARK  148  A    between atoms: _362  and  _365
REMARK  149  A    between atoms: _365  and  _366
REMARK  150  A    between atoms: _368  and  _370
REMARK  151  A    between atoms: _370  and  _371
REMARK  152  A    between atoms: _370  and  _373
REMARK  153  A    between atoms: _376  and  _378
REMARK  154  A    between atoms: _378  and  _379
REMARK  155  A    between atoms: _378  and  _381
REMARK  156  A    between atoms: _384  and  _386
REMARK  157  A    between atoms: _386  and  _387
REMARK  158  A    between atoms: _386  and  _389
REMARK  159  A    between atoms: _389  and  _390
REMARK  160  A    between atoms: _393  and  _395
REMARK  161  A    between atoms: _395  and  _396
REMARK  162  A    between atoms: _395  and  _398
REMARK  163  A    between atoms: _398  and  _399
REMARK  164  A    between atoms: _399  and  _400
REMARK  165  A    between atoms: _405  and  _407
REMARK  166  A    between atoms: _407  and  _408
REMARK  167  A    between atoms: _412  and  _413
REMARK  168  A    between atoms: _418  and  _420
REMARK  169  A    between atoms: _420  and  _421
REMARK  170  A    between atoms: _420  and  _423
REMARK  171  A    between atoms: _423  and  _424
REMARK  172  A    between atoms: _427  and  _429
REMARK  173  A    between atoms: _429  and  _430
REMARK  174  A    between atoms: _429  and  _432
REMARK  175  A    between atoms: _432  and  _433
REMARK  176  A    between atoms: _436  and  _438
REMARK  177  A    between atoms: _438  and  _439
REMARK  178  A    between atoms: _438  and  _441
REMARK  179  A    between atoms: _441  and  _442
REMARK  180  A    between atoms: _445  and  _447
REMARK  181  A    between atoms: _447  and  _448
REMARK  182  A    between atoms: _447  and  _450
REMARK  183  A    between atoms: _450  and  _451
REMARK  184  A    between atoms: _451  and  _452
REMARK  185  A    between atoms: _452  and  _453
REMARK  186  A    between atoms: _463  and  _464
REMARK  187  A    between atoms: _469  and  _471
REMARK  188  A    between atoms: _471  and  _472
REMARK  189  A    between atoms: _471  and  _474
REMARK  190  A    between atoms: _474  and  _475
REMARK  191  A    between atoms: _478  and  _480
REMARK  192  A    between atoms: _480  and  _481
REMARK  193  A    between atoms: _480  and  _483
REMARK  194  A    between atoms: _483  and  _484
REMARK  195  A    between atoms: _487  and  _489
REMARK  196  A    between atoms: _489  and  _490
REMARK  197  A    between atoms: _489  and  _492
REMARK  198  A    between atoms: _492  and  _493
REMARK  199  A    between atoms: _497  and  _498
REMARK  200  A    between atoms: _503  and  _505
REMARK  201  A    between atoms: _505  and  _506
REMARK  202  A    between atoms: _505  and  _508
REMARK  203  A    between atoms: _508  and  _509
REMARK  204  A    between atoms: _512  and  _514
REMARK  205  A    between atoms: _514  and  _515
REMARK  206  A    between atoms: _514  and  _517
REMARK  207  A    between atoms: _517  and  _518
REMARK  208  A    between atoms: _518  and  _519
REMARK  209  A    between atoms: _519  and  _520
REMARK  210  A    between atoms: _529  and  _531
REMARK  211  A    between atoms: _531  and  _532
REMARK  212  A    between atoms: _531  and  _534
REMARK  213  A    between atoms: _537  and  _539
REMARK  214  A    between atoms: _539  and  _540
REMARK  215  A    between atoms: _539  and  _542
REMARK  216  A    between atoms: _542  and  _543
REMARK  217  A    between atoms: _546  and  _548
REMARK  218  A    between atoms: _548  and  _549
REMARK  219  A    between atoms: _548  and  _551
REMARK  220  A    between atoms: _551  and  _552
REMARK  221  A    between atoms: _552  and  _553
REMARK  222  A    between atoms: _558  and  _560
REMARK  223  A    between atoms: _560  and  _561
REMARK  224  A    between atoms: _563  and  _565
REMARK  225  A    between atoms: _565  and  _566
REMARK  226  A    between atoms: _565  and  _568
REMARK  227  A    between atoms: _568  and  _569
REMARK  228  A    between atoms: _572  and  _574
REMARK  229  A    between atoms: _574  and  _575
REMARK  230  A    between atoms: _574  and  _577
REMARK  231  A    between atoms: _577  and  _578
REMARK  232  A    between atoms: _580  and  _582
REMARK  233  A    between atoms: _582  and  _583
REMARK  234  A    between atoms: _582  and  _585
REMARK  235  A    between atoms: _585  and  _586
REMARK  236  A    between atoms: _589  and  _591
REMARK  237  A    between atoms: _591  and  _592
REMARK  238  A    between atoms: _591  and  _594
REMARK  239  A    between atoms: _594  and  _595
REMARK  240  A    between atoms: _595  and  _596
REMARK  241  A    between atoms: _599  and  _601
REMARK  242  A    between atoms: _601  and  _602
REMARK  243  A    between atoms: _601  and  _604
REMARK  244  A    between atoms: _604  and  _605
REMARK  245  A    between atoms: _610  and  _612
REMARK  246  A    between atoms: _612  and  _613
REMARK  247  A    between atoms: _612  and  _615
REMARK  248  A    between atoms: _615  and  _616
REMARK  249  A    between atoms: _619  and  _621
REMARK  250  A    between atoms: _621  and  _622
REMARK  251  A    between atoms: _625  and  _627
REMARK  252  A    between atoms: _627  and  _628
REMARK  253  A    between atoms: _627  and  _630
REMARK  254  A    between atoms: _630  and  _631
REMARK  255  A    between atoms: _637  and  _639
REMARK  256  A    between atoms: _639  and  _640
REMARK  257  A    between atoms: _642  and  _644
REMARK  258  A    between atoms: _644  and  _645
REMARK  259  A    between atoms: _644  and  _647
REMARK  260  A    between atoms: _647  and  _648
REMARK  261  A    between atoms: _650  and  _652
REMARK  262  A    between atoms: _652  and  _653
REMARK                            x       y       z     vdW  Elec       q    Type
REMARK                         _______ _______ _______ _____ _____    ______ ____
ROOT
ATOM      1  O   HOH     1       8.800  -2.462  55.755  0.00  0.00    +0.000 OA
ENDROOT
TORSDOF 0
REMARK  Name = ../refined-set-2016/2gvj/2gvj_pocket.pdb
REMARK  262 active torsions:
REMARK  status: ('A' for Active; 'I' for Inactive)
REMARK    1  A    between atoms: _1  and  _3
REMARK    2  A    between atoms: _3  and  _4
REMARK    3  A    between atoms: _3  and  _6
REMARK    4  A    between atoms: _6  and  _7
REMARK    5  A    between atoms: _10  and  _12
REMARK    6  A    between atoms: _12  and  _13
REMARK    7  A    between atoms: _12  and  _15
REMARK    8  A    between atoms: _15  and  _16
REMARK    9  A    between atoms: _19  and  _21
REMARK   10  A    between atoms: _21  and  _22
REMARK   11  A    between atoms: _21  and  _24
REMARK   12  A    between atoms: _24  and  _25
REMARK   13  A    between atoms: _27  and  _29
REMARK   14  A    between atoms: _29  and  _30
REMARK   15  A    between atoms: _29  and  _32
REMARK   16  A    between atoms: _32  and  _33
REMARK   17  A    between atoms: _38  and  _39
REMARK   18  A    between atoms: _41  and  _43
REMARK   19  A    between atoms: _43  and  _44
REMARK   20  A    between atoms: _43  and  _46
REMARK   21  A    between atoms: _46  and  _47
REMARK   22  A    between atoms: _47  and  _48
REMARK   23  A    between atoms: _48  and  _49
REMARK   24  A    between atoms: _49  and  _50
REMARK   25  A    between atoms: _54  and  _56
REMARK   26  A    between atoms: _56  and  _57
REMARK   27  A    between atoms: _56  and  _59
REMARK   28  A    between atoms: _59  and  _60
REMARK   29  A    between atoms: _65  and  _67
REMARK   30  A    between atoms: _67  and  _68
REMARK   31  A    between atoms: _67  and  _70
REMARK   32  A    between atoms: _70  and  _71
REMARK   33  A    between atoms: _71  and  _72
REMARK   34  A    between atoms: _75  and  _77
REMARK   35  A    between atoms: _77  and  _78
REMARK   36  A    between atoms: _77  and  _80
REMARK   37  A    between atoms: _80  and  _81
REMARK   38  A    between atoms: _84  and  _86
REMARK   39  A    between atoms: _86  and  _87
REMARK   40  A    between atoms: _86  and  _89
REMARK   41  A    between atoms: _89  and  _90
REMARK   42  A    between atoms: _90  and  _91
REMARK   43  A    between atoms: _91  and  _92
REMARK   44  A    between atoms: _101  and  _103
REMARK   45  A    between atoms: _103  and  _104
REMARK   46  A    between atoms: _103  and  _106
REMARK   47  A    between atoms: _106  and  _107
REMARK   48  A    between atoms: _110  and  _112
REMARK   49  A    between atoms: _112  and  _113
REMARK   50  A    between atoms: _112  and  _115
REMARK   51  A    between atoms: _115  and  _116
REMARK   52  A    between atoms: _119  and  _121
REMARK   53  A    between atoms: _121  and  _122
REMARK   54  A    between atoms: _124  and  _126
REMARK   55  A    between atoms: _126  and  _127
REMARK   56  A    between atoms: _126  and  _129
REMARK   57  A    between atoms: _129  and  _130
REMARK   58  A    between atoms: _130  and  _131
REMARK   59  A    between atoms: _134  and  _136
REMARK   60  A    between atoms: _136  and  _137
REMARK   61  A    between atoms: _136  and  _139
REMARK   62  A    between atoms: _139  and  _140
REMARK   63  A    between atoms: _145  and  _146
REMARK   64  A    between atoms: _148  and  _150
REMARK   65  A    between atoms: _150  and  _151
REMARK   66  A    between atoms: _150  and  _153
REMARK   67  A    between atoms: _153  and  _154
REMARK   68  A    between atoms: _154  and  _155
REMARK   69  A    between atoms: _155  and  _156
REMARK   70  A    between atoms: _156  and  _157
REMARK   71  A    between atoms: _161  and  _163
REMARK   72  A    between atoms: _163  and  _164
REMARK   73  A    between atoms: _163  and  _166
REMARK   74  A    between atoms: _166  and  _167
REMARK   75  A    between atoms: _170  and  _172
REMARK   76  A    between atoms: _172  and  _173
REMARK   77  A    between atoms: _172  and  _175
REMARK   78  A    between atoms: _175  and  _176
REMARK   79  A    between atoms: _181  and  _183
REMARK   80  A    between atoms: _183  and  _184
REMARK   81  A    between atoms: _183  and  _186
REMARK   82  A    between atoms: _186  and  _187
REMARK   83  A    between atoms: _190  and  _192
REMARK   84  A    between atoms: _192  and  _193
REMARK   85  A    between atoms: _192  and  _195
REMARK   86  A    between atoms: _195  and  _196
REMARK   87  A    between atoms: _202  and  _204
REMARK   88  A    between atoms: _204  and  _205
REMARK   89  A    between atoms: _207  and  _209
REMARK   90  A    between atoms: _209  and  _210
REMARK   91  A    between atoms: _209  and  _212
REMARK   92  A    between atoms: _212  and  _213
REMARK   93  A    between atoms: _218  and  _219
REMARK   94  A    between atoms: _221  and  _223
REMARK   95  A    between atoms: _223  and  _224
REMARK   96  A    between atoms: _223  and  _226
REMARK   97  A    between atoms: _226  and  _227
REMARK   98  A    between atoms: _227  and  _228
REMARK   99  A    between atoms: _228  and  _229
REMARK  100  A    between atoms: _238  and  _240
REMARK  101  A    between atoms: _240  and  _241
REMARK  102  A    between atoms: _243  and  _245
REMARK  103  A    between atoms: _245  and  _246
REMARK  104  A    between atoms: _248  and  _250
REMARK  105  A    between atoms: _250  and  _251
REMARK  106  A    between atoms: _250  and  _253
REMARK  107  A    between atoms: _253  and  _254
REMARK  108  A    between atoms: _257  and  _259
REMARK  109  A    between atoms: _259  and  _260
REMARK  110  A    between atoms: _259  and  _262
REMARK  111  A    between atoms: _262  and  _263
REMARK  112  A    between atoms: _266  and  _268
REMARK  113  A    between atoms: _268  and  _269
REMARK  114  A    between atoms: _268  and  _271
REMARK  115  A    between atoms: _271  and  _272
REMARK  116  A    between atoms: _275  and  _277
REMARK  117  A    between atoms: _277  and  _278
REMARK  118  A    between atoms: _277  and  _280
REMARK  119  A    between atoms: _280  and  _281
REMARK  120  A    between atoms: _286  and  _287
REMARK  121  A    between atoms: _289  and  _291
REMARK  122  A    between atoms: _291  and  _292
REMARK  123  A    between atoms: _291  and  _294
REMARK  124  A    between atoms: _294  and  _295
REMARK  125  A    between atoms: _297  and  _299
REMARK  126  A    between atoms: _299  and  _300
REMARK  127  A    between atoms: _299  and  _302
REMARK  128  A    between atoms: _306  and  _307
REMARK  129  A    between atoms: _312  and  _314
REMARK  130  A    between atoms: _314  and  _315
REMARK  131  A    between atoms: _318  and  _320
REMARK  132  A    between atoms: _320  and  _321
REMARK  133  A    between atoms: _324  and  _326
REMARK  134  A    between atoms: _326  and  _327
REMARK  135  A    between atoms: _326  and  _329
REMARK  136  A    between atoms: _329  and  _330
REMARK  137  A    between atoms: _330  and  _331
REMARK  138  A    between atoms: _334  and  _336
REMARK  139  A    between atoms: _336  and  _337
REMARK  140  A    between atoms: _336  and  _339
REMARK  141  A    between atoms: _339  and  _340
REMARK  142  A    between atoms: _346  and  _347
REMARK  143  A    between atoms: _352  and  _354
REMARK  144  A    between atoms: _354  and  _355
REMARK  145  A    between atoms: _354  and  _357
REMARK  146  A    between atoms: _360  and  _362
REMARK  147  A    between atoms: _362  and  _363
REMARK  148  A    between atoms: _362  and  _365
REMARK  149  A    between atoms: _365  and  _366
REMARK  150  A    between atoms: _368  and  _370
REMARK  151  A    between atoms: _370  and  _371
REMARK  152  A    between atoms: _370  and  _373
REMARK  153  A    between atoms: _376  and  _378
REMARK  154  A    between atoms: _378  and  _379
REMARK  155  A    between atoms: _378  and  _381
REMARK  156  A    between atoms: _384  and  _386
REMARK  157  A    between atoms: _386  and  _387
REMARK  158  A    between atoms: _386  and  _389
REMARK  159  A    between atoms: _389  and  _390
REMARK  160  A    between atoms: _393  and  _395
REMARK  161  A    between atoms: _395  and  _396
REMARK  162  A    between atoms: _395  and  _398
REMARK  163  A    between atoms: _398  and  _399
REMARK  164  A    between atoms: _399  and  _400
REMARK  165  A    between atoms: _405  and  _407
REMARK  166  A    between atoms: _407  and  _408
REMARK  167  A    between atoms: _412  and  _413
REMARK  168  A    between atoms: _418  and  _420
REMARK  169  A    between atoms: _420  and  _421
REMARK  170  A    between atoms: _420  and  _423
REMARK  171  A    between atoms: _423  and  _424
REMARK  172  A    between atoms: _427  and  _429
REMARK  173  A    between atoms: _429  and  _430
REMARK  174  A    between atoms: _429  and  _432
REMARK  175  A    between atoms: _432  and  _433
REMARK  176  A    between atoms: _436  and  _438
REMARK  177  A    between atoms: _438  and  _439
REMARK  178  A    between atoms: _438  and  _441
REMARK  179  A    between atoms: _441  and  _442
REMARK  180  A    between atoms: _445  and  _447
REMARK  181  A    between atoms: _447  and  _448
REMARK  182  A    between atoms: _447  and  _450
REMARK  183  A    between atoms: _450  and  _451
REMARK  184  A    between atoms: _451  and  _452
REMARK  185  A    between atoms: _452  and  _453
REMARK  186  A    between atoms: _463  and  _464
REMARK  187  A    between atoms: _469  and  _471
REMARK  188  A    between atoms: _471  and  _472
REMARK  189  A    between atoms: _471  and  _474
REMARK  190  A    between atoms: _474  and  _475
REMARK  191  A    between atoms: _478  and  _480
REMARK  192  A    between atoms: _480  and  _481
REMARK  193  A    between atoms: _480  and  _483
REMARK  194  A    between atoms: _483  and  _484
REMARK  195  A    between atoms: _487  and  _489
REMARK  196  A    between atoms: _489  and  _490
REMARK  197  A    between atoms: _489  and  _492
REMARK  198  A    between atoms: _492  and  _493
REMARK  199  A    between atoms: _497  and  _498
REMARK  200  A    between atoms: _503  and  _505
REMARK  201  A    between atoms: _505  and  _506
REMARK  202  A    between atoms: _505  and  _508
REMARK  203  A    between atoms: _508  and  _509
REMARK  204  A    between atoms: _512  and  _514
REMARK  205  A    between atoms: _514  and  _515
REMARK  206  A    between atoms: _514  and  _517
REMARK  207  A    between atoms: _517  and  _518
REMARK  208  A    between atoms: _518  and  _519
REMARK  209  A    between atoms: _519  and  _520
REMARK  210  A    between atoms: _529  and  _531
REMARK  211  A    between atoms: _531  and  _532
REMARK  212  A    between atoms: _531  and  _534
REMARK  213  A    between atoms: _537  and  _539
REMARK  214  A    between atoms: _539  and  _540
REMARK  215  A    between atoms: _539  and  _542
REMARK  216  A    between atoms: _542  and  _543
REMARK  217  A    between atoms: _546  and  _548
REMARK  218  A    between atoms: _548  and  _549
REMARK  219  A    between atoms: _548  and  _551
REMARK  220  A    between atoms: _551  and  _552
REMARK  221  A    between atoms: _552  and  _553
REMARK  222  A    between atoms: _558  and  _560
REMARK  223  A    between atoms: _560  and  _561
REMARK  224  A    between atoms: _563  and  _565
REMARK  225  A    between atoms: _565  and  _566
REMARK  226  A    between atoms: _565  and  _568
REMARK  227  A    between atoms: _568  and  _569
REMARK  228  A    between atoms: _572  and  _574
REMARK  229  A    between atoms: _574  and  _575
REMARK  230  A    between atoms: _574  and  _577
REMARK  231  A    between atoms: _577  and  _578
REMARK  232  A    between atoms: _580  and  _582
REMARK  233  A    between atoms: _582  and  _583
REMARK  234  A    between atoms: _582  and  _585
REMARK  235  A    between atoms: _585  and  _586
REMARK  236  A    between atoms: _589  and  _591
REMARK  237  A    between atoms: _591  and  _592
REMARK  238  A    between atoms: _591  and  _594
REMARK  239  A    between atoms: _594  and  _595
REMARK  240  A    between atoms: _595  and  _596
REMARK  241  A    between atoms: _599  and  _601
REMARK  242  A    between atoms: _601  and  _602
REMARK  243  A    between atoms: _601  and  _604
REMARK  244  A    between atoms: _604  and  _605
REMARK  245  A    between atoms: _610  and  _612
REMARK  246  A    between atoms: _612  and  _613
REMARK  247  A    between atoms: _612  and  _615
REMARK  248  A    between atoms: _615  and  _616
REMARK  249  A    between atoms: _619  and  _621
REMARK  250  A    between atoms: _621  and  _622
REMARK  251  A    between atoms: _625  and  _627
REMARK  252  A    between atoms: _627  and  _628
REMARK  253  A    between atoms: _627  and  _630
REMARK  254  A    between atoms: _630  and  _631
REMARK  255  A    between atoms: _637  and  _639
REMARK  256  A    between atoms: _639  and  _640
REMARK  257  A    between atoms: _642  and  _644
REMARK  258  A    between atoms: _644  and  _645
REMARK  259  A    between atoms: _644  and  _647
REMARK  260  A    between atoms: _647  and  _648
REMARK  261  A    between atoms: _650  and  _652
REMARK  262  A    between atoms: _652  and  _653
REMARK                            x       y       z     vdW  Elec       q    Type
REMARK                         _______ _______ _______ _____ _____    ______ ____
ROOT
ATOM      1  O   HOH     1       6.223  -7.094  31.174  0.00  0.00    +0.000 OA
ENDROOT
TORSDOF 0
REMARK  Name = ../refined-set-2016/2gvj/2gvj_pocket.pdb
REMARK  262 active torsions:
REMARK  status: ('A' for Active; 'I' for Inactive)
REMARK    1  A    between atoms: _1  and  _3
REMARK    2  A    between atoms: _3  and  _4
REMARK    3  A    between atoms: _3  and  _6
REMARK    4  A    between atoms: _6  and  _7
REMARK    5  A    between atoms: _10  and  _12
REMARK    6  A    between atoms: _12  and  _13
REMARK    7  A    between atoms: _12  and  _15
REMARK    8  A    between atoms: _15  and  _16
REMARK    9  A    between atoms: _19  and  _21
REMARK   10  A    between atoms: _21  and  _22
REMARK   11  A    between atoms: _21  and  _24
REMARK   12  A    between atoms: _24  and  _25
REMARK   13  A    between atoms: _27  and  _29
REMARK   14  A    between atoms: _29  and  _30
REMARK   15  A    between atoms: _29  and  _32
REMARK   16  A    between atoms: _32  and  _33
REMARK   17  A    between atoms: _38  and  _39
REMARK   18  A    between atoms: _41  and  _43
REMARK   19  A    between atoms: _43  and  _44
REMARK   20  A    between atoms: _43  and  _46
REMARK   21  A    between atoms: _46  and  _47
REMARK   22  A    between atoms: _47  and  _48
REMARK   23  A    between atoms: _48  and  _49
REMARK   24  A    between atoms: _49  and  _50
REMARK   25  A    between atoms: _54  and  _56
REMARK   26  A    between atoms: _56  and  _57
REMARK   27  A    between atoms: _56  and  _59
REMARK   28  A    between atoms: _59  and  _60
REMARK   29  A    between atoms: _65  and  _67
REMARK   30  A    between atoms: _67  and  _68
REMARK   31  A    between atoms: _67  and  _70
REMARK   32  A    between atoms: _70  and  _71
REMARK   33  A    between atoms: _71  and  _72
REMARK   34  A    between atoms: _75  and  _77
REMARK   35  A    between atoms: _77  and  _78
REMARK   36  A    between atoms: _77  and  _80
REMARK   37  A    between atoms: _80  and  _81
REMARK   38  A    between atoms: _84  and  _86
REMARK   39  A    between atoms: _86  and  _87
REMARK   40  A    between atoms: _86  and  _89
REMARK   41  A    between atoms: _89  and  _90
REMARK   42  A    between atoms: _90  and  _91
REMARK   43  A    between atoms: _91  and  _92
REMARK   44  A    between atoms: _101  and  _103
REMARK   45  A    between atoms: _103  and  _104
REMARK   46  A    between atoms: _103  and  _106
REMARK   47  A    between atoms: _106  and  _107
REMARK   48  A    between atoms: _110  and  _112
REMARK   49  A    between atoms: _112  and  _113
REMARK   50  A    between atoms: _112  and  _115
REMARK   51  A    between atoms: _115  and  _116
REMARK   52  A    between atoms: _119  and  _121
REMARK   53  A    between atoms: _121  and  _122
REMARK   54  A    between atoms: _124  and  _126
REMARK   55  A    between atoms: _126  and  _127
REMARK   56  A    between atoms: _126  and  _129
REMARK   57  A    between atoms: _129  and  _130
REMARK   58  A    between atoms: _130  and  _131
REMARK   59  A    between atoms: _134  and  _136
REMARK   60  A    between atoms: _136  and  _137
REMARK   61  A    between atoms: _136  and  _139
REMARK   62  A    between atoms: _139  and  _140
REMARK   63  A    between atoms: _145  and  _146
REMARK   64  A    between atoms: _148  and  _150
REMARK   65  A    between atoms: _150  and  _151
REMARK   66  A    between atoms: _150  and  _153
REMARK   67  A    between atoms: _153  and  _154
REMARK   68  A    between atoms: _154  and  _155
REMARK   69  A    between atoms: _155  and  _156
REMARK   70  A    between atoms: _156  and  _157
REMARK   71  A    between atoms: _161  and  _163
REMARK   72  A    between atoms: _163  and  _164
REMARK   73  A    between atoms: _163  and  _166
REMARK   74  A    between atoms: _166  and  _167
REMARK   75  A    between atoms: _170  and  _172
REMARK   76  A    between atoms: _172  and  _173
REMARK   77  A    between atoms: _172  and  _175
REMARK   78  A    between atoms: _175  and  _176
REMARK   79  A    between atoms: _181  and  _183
REMARK   80  A    between atoms: _183  and  _184
REMARK   81  A    between atoms: _183  and  _186
REMARK   82  A    between atoms: _186  and  _187
REMARK   83  A    between atoms: _190  and  _192
REMARK   84  A    between atoms: _192  and  _193
REMARK   85  A    between atoms: _192  and  _195
REMARK   86  A    between atoms: _195  and  _196
REMARK   87  A    between atoms: _202  and  _204
REMARK   88  A    between atoms: _204  and  _205
REMARK   89  A    between atoms: _207  and  _209
REMARK   90  A    between atoms: _209  and  _210
REMARK   91  A    between atoms: _209  and  _212
REMARK   92  A    between atoms: _212  and  _213
REMARK   93  A    between atoms: _218  and  _219
REMARK   94  A    between atoms: _221  and  _223
REMARK   95  A    between atoms: _223  and  _224
REMARK   96  A    between atoms: _223  and  _226
REMARK   97  A    between atoms: _226  and  _227
REMARK   98  A    between atoms: _227  and  _228
REMARK   99  A    between atoms: _228  and  _229
REMARK  100  A    between atoms: _238  and  _240
REMARK  101  A    between atoms: _240  and  _241
REMARK  102  A    between atoms: _243  and  _245
REMARK  103  A    between atoms: _245  and  _246
REMARK  104  A    between atoms: _248  and  _250
REMARK  105  A    between atoms: _250  and  _251
REMARK  106  A    between atoms: _250  and  _253
REMARK  107  A    between atoms: _253  and  _254
REMARK  108  A    between atoms: _257  and  _259
REMARK  109  A    between atoms: _259  and  _260
REMARK  110  A    between atoms: _259  and  _262
REMARK  111  A    between atoms: _262  and  _263
REMARK  112  A    between atoms: _266  and  _268
REMARK  113  A    between atoms: _268  and  _269
REMARK  114  A    between atoms: _268  and  _271
REMARK  115  A    between atoms: _271  and  _272
REMARK  116  A    between atoms: _275  and  _277
REMARK  117  A    between atoms: _277  and  _278
REMARK  118  A    between atoms: _277  and  _280
REMARK  119  A    between atoms: _280  and  _281
REMARK  120  A    between atoms: _286  and  _287
REMARK  121  A    between atoms: _289  and  _291
REMARK  122  A    between atoms: _291  and  _292
REMARK  123  A    between atoms: _291  and  _294
REMARK  124  A    between atoms: _294  and  _295
REMARK  125  A    between atoms: _297  and  _299
REMARK  126  A    between atoms: _299  and  _300
REMARK  127  A    between atoms: _299  and  _302
REMARK  128  A    between atoms: _306  and  _307
REMARK  129  A    between atoms: _312  and  _314
REMARK  130  A    between atoms: _314  and  _315
REMARK  131  A    between atoms: _318  and  _320
REMARK  132  A    between atoms: _320  and  _321
REMARK  133  A    between atoms: _324  and  _326
REMARK  134  A    between atoms: _326  and  _327
REMARK  135  A    between atoms: _326  and  _329
REMARK  136  A    between atoms: _329  and  _330
REMARK  137  A    between atoms: _330  and  _331
REMARK  138  A    between atoms: _334  and  _336
REMARK  139  A    between atoms: _336  and  _337
REMARK  140  A    between atoms: _336  and  _339
REMARK  141  A    between atoms: _339  and  _340
REMARK  142  A    between atoms: _346  and  _347
REMARK  143  A    between atoms: _352  and  _354
REMARK  144  A    between atoms: _354  and  _355
REMARK  145  A    between atoms: _354  and  _357
REMARK  146  A    between atoms: _360  and  _362
REMARK  147  A    between atoms: _362  and  _363
REMARK  148  A    between atoms: _362  and  _365
REMARK  149  A    between atoms: _365  and  _366
REMARK  150  A    between atoms: _368  and  _370
REMARK  151  A    between atoms: _370  and  _371
REMARK  152  A    between atoms: _370  and  _373
REMARK  153  A    between atoms: _376  and  _378
REMARK  154  A    between atoms: _378  and  _379
REMARK  155  A    between atoms: _378  and  _381
REMARK  156  A    between atoms: _384  and  _386
REMARK  157  A    between atoms: _386  and  _387
REMARK  158  A    between atoms: _386  and  _389
REMARK  159  A    between atoms: _389  and  _390
REMARK  160  A    between atoms: _393  and  _395
REMARK  161  A    between atoms: _395  and  _396
REMARK  162  A    between atoms: _395  and  _398
REMARK  163  A    between atoms: _398  and  _399
REMARK  164  A    between atoms: _399  and  _400
REMARK  165  A    between atoms: _405  and  _407
REMARK  166  A    between atoms: _407  and  _408
REMARK  167  A    between atoms: _412  and  _413
REMARK  168  A    between atoms: _418  and  _420
REMARK  169  A    between atoms: _420  and  _421
REMARK  170  A    between atoms: _420  and  _423
REMARK  171  A    between atoms: _423  and  _424
REMARK  172  A    between atoms: _427  and  _429
REMARK  173  A    between atoms: _429  and  _430
REMARK  174  A    between atoms: _429  and  _432
REMARK  175  A    between atoms: _432  and  _433
REMARK  176  A    between atoms: _436  and  _438
REMARK  177  A    between atoms: _438  and  _439
REMARK  178  A    between atoms: _438  and  _441
REMARK  179  A    between atoms: _441  and  _442
REMARK  180  A    between atoms: _445  and  _447
REMARK  181  A    between atoms: _447  and  _448
REMARK  182  A    between atoms: _447  and  _450
REMARK  183  A    between atoms: _450  and  _451
REMARK  184  A    between atoms: _451  and  _452
REMARK  185  A    between atoms: _452  and  _453
REMARK  186  A    between atoms: _463  and  _464
REMARK  187  A    between atoms: _469  and  _471
REMARK  188  A    between atoms: _471  and  _472
REMARK  189  A    between atoms: _471  and  _474
REMARK  190  A    between atoms: _474  and  _475
REMARK  191  A    between atoms: _478  and  _480
REMARK  192  A    between atoms: _480  and  _481
REMARK  193  A    between atoms: _480  and  _483
REMARK  194  A    between atoms: _483  and  _484
REMARK  195  A    between atoms: _487  and  _489
REMARK  196  A    between atoms: _489  and  _490
REMARK  197  A    between atoms: _489  and  _492
REMARK  198  A    between atoms: _492  and  _493
REMARK  199  A    between atoms: _497  and  _498
REMARK  200  A    between atoms: _503  and  _505
REMARK  201  A    between atoms: _505  and  _506
REMARK  202  A    between atoms: _505  and  _508
REMARK  203  A    between atoms: _508  and  _509
REMARK  204  A    between atoms: _512  and  _514
REMARK  205  A    between atoms: _514  and  _515
REMARK  206  A    between atoms: _514  and  _517
REMARK  207  A    between atoms: _517  and  _518
REMARK  208  A    between atoms: _518  and  _519
REMARK  209  A    between atoms: _519  and  _520
REMARK  210  A    between atoms: _529  and  _531
REMARK  211  A    between atoms: _531  and  _532
REMARK  212  A    between atoms: _531  and  _534
REMARK  213  A    between atoms: _537  and  _539
REMARK  214  A    between atoms: _539  and  _540
REMARK  215  A    between atoms: _539  and  _542
REMARK  216  A    between atoms: _542  and  _543
REMARK  217  A    between atoms: _546  and  _548
REMARK  218  A    between atoms: _548  and  _549
REMARK  219  A    between atoms: _548  and  _551
REMARK  220  A    between atoms: _551  and  _552
REMARK  221  A    between atoms: _552  and  _553
REMARK  222  A    between atoms: _558  and  _560
REMARK  223  A    between atoms: _560  and  _561
REMARK  224  A    between atoms: _563  and  _565
REMARK  225  A    between atoms: _565  and  _566
REMARK  226  A    between atoms: _565  and  _568
REMARK  227  A    between atoms: _568  and  _569
REMARK  228  A    between atoms: _572  and  _574
REMARK  229  A    between atoms: _574  and  _575
REMARK  230  A    between atoms: _574  and  _577
REMARK  231  A    between atoms: _577  and  _578
REMARK  232  A    between atoms: _580  and  _582
REMARK  233  A    between atoms: _582  and  _583
REMARK  234  A    between atoms: _582  and  _585
REMARK  235  A    between atoms: _585  and  _586
REMARK  236  A    between atoms: _589  and  _591
REMARK  237  A    between atoms: _591  and  _592
REMARK  238  A    between atoms: _591  and  _594
REMARK  239  A    between atoms: _594  and  _595
REMARK  240  A    between atoms: _595  and  _596
REMARK  241  A    between atoms: _599  and  _601
REMARK  242  A    between atoms: _601  and  _602
REMARK  243  A    between atoms: _601  and  _604
REMARK  244  A    between atoms: _604  and  _605
REMARK  245  A    between atoms: _610  and  _612
REMARK  246  A    between atoms: _612  and  _613
REMARK  247  A    between atoms: _612  and  _615
REMARK  248  A    between atoms: _615  and  _616
REMARK  249  A    between atoms: _619  and  _621
REMARK  250  A    between atoms: _621  and  _622
REMARK  251  A    between atoms: _625  and  _627
REMARK  252  A    between atoms: _627  and  _628
REMARK  253  A    between atoms: _627  and  _630
REMARK  254  A    between atoms: _630  and  _631
REMARK  255  A    between atoms: _637  and  _639
REMARK  256  A    between atoms: _639  and  _640
REMARK  257  A    between atoms: _642  and  _644
REMARK  258  A    between atoms: _644  and  _645
REMARK  259  A    between atoms: _644  and  _647
REMARK  260  A    between atoms: _647  and  _648
REMARK  261  A    between atoms: _650  and  _652
REMARK  262  A    between atoms: _652  and  _653
REMARK                            x       y       z     vdW  Elec       q    Type
REMARK                         _______ _______ _______ _____ _____    ______ ____
ROOT
ATOM      1  O   HOH     1       9.102 -13.507  32.038  0.00  0.00    +0.000 OA
ENDROOT
TORSDOF 0
REMARK  Name = ../refined-set-2016/2gvj/2gvj_pocket.pdb
REMARK  262 active torsions:
REMARK  status: ('A' for Active; 'I' for Inactive)
REMARK    1  A    between atoms: _1  and  _3
REMARK    2  A    between atoms: _3  and  _4
REMARK    3  A    between atoms: _3  and  _6
REMARK    4  A    between atoms: _6  and  _7
REMARK    5  A    between atoms: _10  and  _12
REMARK    6  A    between atoms: _12  and  _13
REMARK    7  A    between atoms: _12  and  _15
REMARK    8  A    between atoms: _15  and  _16
REMARK    9  A    between atoms: _19  and  _21
REMARK   10  A    between atoms: _21  and  _22
REMARK   11  A    between atoms: _21  and  _24
REMARK   12  A    between atoms: _24  and  _25
REMARK   13  A    between atoms: _27  and  _29
REMARK   14  A    between atoms: _29  and  _30
REMARK   15  A    between atoms: _29  and  _32
REMARK   16  A    between atoms: _32  and  _33
REMARK   17  A    between atoms: _38  and  _39
REMARK   18  A    between atoms: _41  and  _43
REMARK   19  A    between atoms: _43  and  _44
REMARK   20  A    between atoms: _43  and  _46
REMARK   21  A    between atoms: _46  and  _47
REMARK   22  A    between atoms: _47  and  _48
REMARK   23  A    between atoms: _48  and  _49
REMARK   24  A    between atoms: _49  and  _50
REMARK   25  A    between atoms: _54  and  _56
REMARK   26  A    between atoms: _56  and  _57
REMARK   27  A    between atoms: _56  and  _59
REMARK   28  A    between atoms: _59  and  _60
REMARK   29  A    between atoms: _65  and  _67
REMARK   30  A    between atoms: _67  and  _68
REMARK   31  A    between atoms: _67  and  _70
REMARK   32  A    between atoms: _70  and  _71
REMARK   33  A    between atoms: _71  and  _72
REMARK   34  A    between atoms: _75  and  _77
REMARK   35  A    between atoms: _77  and  _78
REMARK   36  A    between atoms: _77  and  _80
REMARK   37  A    between atoms: _80  and  _81
REMARK   38  A    between atoms: _84  and  _86
REMARK   39  A    between atoms: _86  and  _87
REMARK   40  A    between atoms: _86  and  _89
REMARK   41  A    between atoms: _89  and  _90
REMARK   42  A    between atoms: _90  and  _91
REMARK   43  A    between atoms: _91  and  _92
REMARK   44  A    between atoms: _101  and  _103
REMARK   45  A    between atoms: _103  and  _104
REMARK   46  A    between atoms: _103  and  _106
REMARK   47  A    between atoms: _106  and  _107
REMARK   48  A    between atoms: _110  and  _112
REMARK   49  A    between atoms: _112  and  _113
REMARK   50  A    between atoms: _112  and  _115
REMARK   51  A    between atoms: _115  and  _116
REMARK   52  A    between atoms: _119  and  _121
REMARK   53  A    between atoms: _121  and  _122
REMARK   54  A    between atoms: _124  and  _126
REMARK   55  A    between atoms: _126  and  _127
REMARK   56  A    between atoms: _126  and  _129
REMARK   57  A    between atoms: _129  and  _130
REMARK   58  A    between atoms: _130  and  _131
REMARK   59  A    between atoms: _134  and  _136
REMARK   60  A    between atoms: _136  and  _137
REMARK   61  A    between atoms: _136  and  _139
REMARK   62  A    between atoms: _139  and  _140
REMARK   63  A    between atoms: _145  and  _146
REMARK   64  A    between atoms: _148  and  _150
REMARK   65  A    between atoms: _150  and  _151
REMARK   66  A    between atoms: _150  and  _153
REMARK   67  A    between atoms: _153  and  _154
REMARK   68  A    between atoms: _154  and  _155
REMARK   69  A    between atoms: _155  and  _156
REMARK   70  A    between atoms: _156  and  _157
REMARK   71  A    between atoms: _161  and  _163
REMARK   72  A    between atoms: _163  and  _164
REMARK   73  A    between atoms: _163  and  _166
REMARK   74  A    between atoms: _166  and  _167
REMARK   75  A    between atoms: _170  and  _172
REMARK   76  A    between atoms: _172  and  _173
REMARK   77  A    between atoms: _172  and  _175
REMARK   78  A    between atoms: _175  and  _176
REMARK   79  A    between atoms: _181  and  _183
REMARK   80  A    between atoms: _183  and  _184
REMARK   81  A    between atoms: _183  and  _186
REMARK   82  A    between atoms: _186  and  _187
REMARK   83  A    between atoms: _190  and  _192
REMARK   84  A    between atoms: _192  and  _193
REMARK   85  A    between atoms: _192  and  _195
REMARK   86  A    between atoms: _195  and  _196
REMARK   87  A    between atoms: _202  and  _204
REMARK   88  A    between atoms: _204  and  _205
REMARK   89  A    between atoms: _207  and  _209
REMARK   90  A    between atoms: _209  and  _210
REMARK   91  A    between atoms: _209  and  _212
REMARK   92  A    between atoms: _212  and  _213
REMARK   93  A    between atoms: _218  and  _219
REMARK   94  A    between atoms: _221  and  _223
REMARK   95  A    between atoms: _223  and  _224
REMARK   96  A    between atoms: _223  and  _226
REMARK   97  A    between atoms: _226  and  _227
REMARK   98  A    between atoms: _227  and  _228
REMARK   99  A    between atoms: _228  and  _229
REMARK  100  A    between atoms: _238  and  _240
REMARK  101  A    between atoms: _240  and  _241
REMARK  102  A    between atoms: _243  and  _245
REMARK  103  A    between atoms: _245  and  _246
REMARK  104  A    between atoms: _248  and  _250
REMARK  105  A    between atoms: _250  and  _251
REMARK  106  A    between atoms: _250  and  _253
REMARK  107  A    between atoms: _253  and  _254
REMARK  108  A    between atoms: _257  and  _259
REMARK  109  A    between atoms: _259  and  _260
REMARK  110  A    between atoms: _259  and  _262
REMARK  111  A    between atoms: _262  and  _263
REMARK  112  A    between atoms: _266  and  _268
REMARK  113  A    between atoms: _268  and  _269
REMARK  114  A    between atoms: _268  and  _271
REMARK  115  A    between atoms: _271  and  _272
REMARK  116  A    between atoms: _275  and  _277
REMARK  117  A    between atoms: _277  and  _278
REMARK  118  A    between atoms: _277  and  _280
REMARK  119  A    between atoms: _280  and  _281
REMARK  120  A    between atoms: _286  and  _287
REMARK  121  A    between atoms: _289  and  _291
REMARK  122  A    between atoms: _291  and  _292
REMARK  123  A    between atoms: _291  and  _294
REMARK  124  A    between atoms: _294  and  _295
REMARK  125  A    between atoms: _297  and  _299
REMARK  126  A    between atoms: _299  and  _300
REMARK  127  A    between atoms: _299  and  _302
REMARK  128  A    between atoms: _306  and  _307
REMARK  129  A    between atoms: _312  and  _314
REMARK  130  A    between atoms: _314  and  _315
REMARK  131  A    between atoms: _318  and  _320
REMARK  132  A    between atoms: _320  and  _321
REMARK  133  A    between atoms: _324  and  _326
REMARK  134  A    between atoms: _326  and  _327
REMARK  135  A    between atoms: _326  and  _329
REMARK  136  A    between atoms: _329  and  _330
REMARK  137  A    between atoms: _330  and  _331
REMARK  138  A    between atoms: _334  and  _336
REMARK  139  A    between atoms: _336  and  _337
REMARK  140  A    between atoms: _336  and  _339
REMARK  141  A    between atoms: _339  and  _340
REMARK  142  A    between atoms: _346  and  _347
REMARK  143  A    between atoms: _352  and  _354
REMARK  144  A    between atoms: _354  and  _355
REMARK  145  A    between atoms: _354  and  _357
REMARK  146  A    between atoms: _360  and  _362
REMARK  147  A    between atoms: _362  and  _363
REMARK  148  A    between atoms: _362  and  _365
REMARK  149  A    between atoms: _365  and  _366
REMARK  150  A    between atoms: _368  and  _370
REMARK  151  A    between atoms: _370  and  _371
REMARK  152  A    between atoms: _370  and  _373
REMARK  153  A    between atoms: _376  and  _378
REMARK  154  A    between atoms: _378  and  _379
REMARK  155  A    between atoms: _378  and  _381
REMARK  156  A    between atoms: _384  and  _386
REMARK  157  A    between atoms: _386  and  _387
REMARK  158  A    between atoms: _386  and  _389
REMARK  159  A    between atoms: _389  and  _390
REMARK  160  A    between atoms: _393  and  _395
REMARK  161  A    between atoms: _395  and  _396
REMARK  162  A    between atoms: _395  and  _398
REMARK  163  A    between atoms: _398  and  _399
REMARK  164  A    between atoms: _399  and  _400
REMARK  165  A    between atoms: _405  and  _407
REMARK  166  A    between atoms: _407  and  _408
REMARK  167  A    between atoms: _412  and  _413
REMARK  168  A    between atoms: _418  and  _420
REMARK  169  A    between atoms: _420  and  _421
REMARK  170  A    between atoms: _420  and  _423
REMARK  171  A    between atoms: _423  and  _424
REMARK  172  A    between atoms: _427  and  _429
REMARK  173  A    between atoms: _429  and  _430
REMARK  174  A    between atoms: _429  and  _432
REMARK  175  A    between atoms: _432  and  _433
REMARK  176  A    between atoms: _436  and  _438
REMARK  177  A    between atoms: _438  and  _439
REMARK  178  A    between atoms: _438  and  _441
REMARK  179  A    between atoms: _441  and  _442
REMARK  180  A    between atoms: _445  and  _447
REMARK  181  A    between atoms: _447  and  _448
REMARK  182  A    between atoms: _447  and  _450
REMARK  183  A    between atoms: _450  and  _451
REMARK  184  A    between atoms: _451  and  _452
REMARK  185  A    between atoms: _452  and  _453
REMARK  186  A    between atoms: _463  and  _464
REMARK  187  A    between atoms: _469  and  _471
REMARK  188  A    between atoms: _471  and  _472
REMARK  189  A    between atoms: _471  and  _474
REMARK  190  A    between atoms: _474  and  _475
REMARK  191  A    between atoms: _478  and  _480
REMARK  192  A    between atoms: _480  and  _481
REMARK  193  A    between atoms: _480  and  _483
REMARK  194  A    between atoms: _483  and  _484
REMARK  195  A    between atoms: _487  and  _489
REMARK  196  A    between atoms: _489  and  _490
REMARK  197  A    between atoms: _489  and  _492
REMARK  198  A    between atoms: _492  and  _493
REMARK  199  A    between atoms: _497  and  _498
REMARK  200  A    between atoms: _503  and  _505
REMARK  201  A    between atoms: _505  and  _506
REMARK  202  A    between atoms: _505  and  _508
REMARK  203  A    between atoms: _508  and  _509
REMARK  204  A    between atoms: _512  and  _514
REMARK  205  A    between atoms: _514  and  _515
REMARK  206  A    between atoms: _514  and  _517
REMARK  207  A    between atoms: _517  and  _518
REMARK  208  A    between atoms: _518  and  _519
REMARK  209  A    between atoms: _519  and  _520
REMARK  210  A    between atoms: _529  and  _531
REMARK  211  A    between atoms: _531  and  _532
REMARK  212  A    between atoms: _531  and  _534
REMARK  213  A    between atoms: _537  and  _539
REMARK  214  A    between atoms: _539  and  _540
REMARK  215  A    between atoms: _539  and  _542
REMARK  216  A    between atoms: _542  and  _543
REMARK  217  A    between atoms: _546  and  _548
REMARK  218  A    between atoms: _548  and  _549
REMARK  219  A    between atoms: _548  and  _551
REMARK  220  A    between atoms: _551  and  _552
REMARK  221  A    between atoms: _552  and  _553
REMARK  222  A    between atoms: _558  and  _560
REMARK  223  A    between atoms: _560  and  _561
REMARK  224  A    between atoms: _563  and  _565
REMARK  225  A    between atoms: _565  and  _566
REMARK  226  A    between atoms: _565  and  _568
REMARK  227  A    between atoms: _568  and  _569
REMARK  228  A    between atoms: _572  and  _574
REMARK  229  A    between atoms: _574  and  _575
REMARK  230  A    between atoms: _574  and  _577
REMARK  231  A    between atoms: _577  and  _578
REMARK  232  A    between atoms: _580  and  _582
REMARK  233  A    between atoms: _582  and  _583
REMARK  234  A    between atoms: _582  and  _585
REMARK  235  A    between atoms: _585  and  _586
REMARK  236  A    between atoms: _589  and  _591
REMARK  237  A    between atoms: _591  and  _592
REMARK  238  A    between atoms: _591  and  _594
REMARK  239  A    between atoms: _594  and  _595
REMARK  240  A    between atoms: _595  and  _596
REMARK  241  A    between atoms: _599  and  _601
REMARK  242  A    between atoms: _601  and  _602
REMARK  243  A    between atoms: _601  and  _604
REMARK  244  A    between atoms: _604  and  _605
REMARK  245  A    between atoms: _610  and  _612
REMARK  246  A    between atoms: _612  and  _613
REMARK  247  A    between atoms: _612  and  _615
REMARK  248  A    between atoms: _615  and  _616
REMARK  249  A    between atoms: _619  and  _621
REMARK  250  A    between atoms: _621  and  _622
REMARK  251  A    between atoms: _625  and  _627
REMARK  252  A    between atoms: _627  and  _628
REMARK  253  A    between atoms: _627  and  _630
REMARK  254  A    between atoms: _630  and  _631
REMARK  255  A    between atoms: _637  and  _639
REMARK  256  A    between atoms: _639  and  _640
REMARK  257  A    between atoms: _642  and  _644
REMARK  258  A    between atoms: _644  and  _645
REMARK  259  A    between atoms: _644  and  _647
REMARK  260  A    between atoms: _647  and  _648
REMARK  261  A    between atoms: _650  and  _652
REMARK  262  A    between atoms: _652  and  _653
REMARK                            x       y       z     vdW  Elec       q    Type
REMARK                         _______ _______ _______ _____ _____    ______ ____
ROOT
ATOM      1  O   HOH     1      12.942  -5.525  44.285  0.00  0.00    +0.000 OA
ENDROOT
TORSDOF 0
REMARK  Name = ../refined-set-2016/2gvj/2gvj_pocket.pdb
REMARK  262 active torsions:
REMARK  status: ('A' for Active; 'I' for Inactive)
REMARK    1  A    between atoms: _1  and  _3
REMARK    2  A    between atoms: _3  and  _4
REMARK    3  A    between atoms: _3  and  _6
REMARK    4  A    between atoms: _6  and  _7
REMARK    5  A    between atoms: _10  and  _12
REMARK    6  A    between atoms: _12  and  _13
REMARK    7  A    between atoms: _12  and  _15
REMARK    8  A    between atoms: _15  and  _16
REMARK    9  A    between atoms: _19  and  _21
REMARK   10  A    between atoms: _21  and  _22
REMARK   11  A    between atoms: _21  and  _24
REMARK   12  A    between atoms: _24  and  _25
REMARK   13  A    between atoms: _27  and  _29
REMARK   14  A    between atoms: _29  and  _30
REMARK   15  A    between atoms: _29  and  _32
REMARK   16  A    between atoms: _32  and  _33
REMARK   17  A    between atoms: _38  and  _39
REMARK   18  A    between atoms: _41  and  _43
REMARK   19  A    between atoms: _43  and  _44
REMARK   20  A    between atoms: _43  and  _46
REMARK   21  A    between atoms: _46  and  _47
REMARK   22  A    between atoms: _47  and  _48
REMARK   23  A    between atoms: _48  and  _49
REMARK   24  A    between atoms: _49  and  _50
REMARK   25  A    between atoms: _54  and  _56
REMARK   26  A    between atoms: _56  and  _57
REMARK   27  A    between atoms: _56  and  _59
REMARK   28  A    between atoms: _59  and  _60
REMARK   29  A    between atoms: _65  and  _67
REMARK   30  A    between atoms: _67  and  _68
REMARK   31  A    between atoms: _67  and  _70
REMARK   32  A    between atoms: _70  and  _71
REMARK   33  A    between atoms: _71  and  _72
REMARK   34  A    between atoms: _75  and  _77
REMARK   35  A    between atoms: _77  and  _78
REMARK   36  A    between atoms: _77  and  _80
REMARK   37  A    between atoms: _80  and  _81
REMARK   38  A    between atoms: _84  and  _86
REMARK   39  A    between atoms: _86  and  _87
REMARK   40  A    between atoms: _86  and  _89
REMARK   41  A    between atoms: _89  and  _90
REMARK   42  A    between atoms: _90  and  _91
REMARK   43  A    between atoms: _91  and  _92
REMARK   44  A    between atoms: _101  and  _103
REMARK   45  A    between atoms: _103  and  _104
REMARK   46  A    between atoms: _103  and  _106
REMARK   47  A    between atoms: _106  and  _107
REMARK   48  A    between atoms: _110  and  _112
REMARK   49  A    between atoms: _112  and  _113
REMARK   50  A    between atoms: _112  and  _115
REMARK   51  A    between atoms: _115  and  _116
REMARK   52  A    between atoms: _119  and  _121
REMARK   53  A    between atoms: _121  and  _122
REMARK   54  A    between atoms: _124  and  _126
REMARK   55  A    between atoms: _126  and  _127
REMARK   56  A    between atoms: _126  and  _129
REMARK   57  A    between atoms: _129  and  _130
REMARK   58  A    between atoms: _130  and  _131
REMARK   59  A    between atoms: _134  and  _136
REMARK   60  A    between atoms: _136  and  _137
REMARK   61  A    between atoms: _136  and  _139
REMARK   62  A    between atoms: _139  and  _140
REMARK   63  A    between atoms: _145  and  _146
REMARK   64  A    between atoms: _148  and  _150
REMARK   65  A    between atoms: _150  and  _151
REMARK   66  A    between atoms: _150  and  _153
REMARK   67  A    between atoms: _153  and  _154
REMARK   68  A    between atoms: _154  and  _155
REMARK   69  A    between atoms: _155  and  _156
REMARK   70  A    between atoms: _156  and  _157
REMARK   71  A    between atoms: _161  and  _163
REMARK   72  A    between atoms: _163  and  _164
REMARK   73  A    between atoms: _163  and  _166
REMARK   74  A    between atoms: _166  and  _167
REMARK   75  A    between atoms: _170  and  _172
REMARK   76  A    between atoms: _172  and  _173
REMARK   77  A    between atoms: _172  and  _175
REMARK   78  A    between atoms: _175  and  _176
REMARK   79  A    between atoms: _181  and  _183
REMARK   80  A    between atoms: _183  and  _184
REMARK   81  A    between atoms: _183  and  _186
REMARK   82  A    between atoms: _186  and  _187
REMARK   83  A    between atoms: _190  and  _192
REMARK   84  A    between atoms: _192  and  _193
REMARK   85  A    between atoms: _192  and  _195
REMARK   86  A    between atoms: _195  and  _196
REMARK   87  A    between atoms: _202  and  _204
REMARK   88  A    between atoms: _204  and  _205
REMARK   89  A    between atoms: _207  and  _209
REMARK   90  A    between atoms: _209  and  _210
REMARK   91  A    between atoms: _209  and  _212
REMARK   92  A    between atoms: _212  and  _213
REMARK   93  A    between atoms: _218  and  _219
REMARK   94  A    between atoms: _221  and  _223
REMARK   95  A    between atoms: _223  and  _224
REMARK   96  A    between atoms: _223  and  _226
REMARK   97  A    between atoms: _226  and  _227
REMARK   98  A    between atoms: _227  and  _228
REMARK   99  A    between atoms: _228  and  _229
REMARK  100  A    between atoms: _238  and  _240
REMARK  101  A    between atoms: _240  and  _241
REMARK  102  A    between atoms: _243  and  _245
REMARK  103  A    between atoms: _245  and  _246
REMARK  104  A    between atoms: _248  and  _250
REMARK  105  A    between atoms: _250  and  _251
REMARK  106  A    between atoms: _250  and  _253
REMARK  107  A    between atoms: _253  and  _254
REMARK  108  A    between atoms: _257  and  _259
REMARK  109  A    between atoms: _259  and  _260
REMARK  110  A    between atoms: _259  and  _262
REMARK  111  A    between atoms: _262  and  _263
REMARK  112  A    between atoms: _266  and  _268
REMARK  113  A    between atoms: _268  and  _269
REMARK  114  A    between atoms: _268  and  _271
REMARK  115  A    between atoms: _271  and  _272
REMARK  116  A    between atoms: _275  and  _277
REMARK  117  A    between atoms: _277  and  _278
REMARK  118  A    between atoms: _277  and  _280
REMARK  119  A    between atoms: _280  and  _281
REMARK  120  A    between atoms: _286  and  _287
REMARK  121  A    between atoms: _289  and  _291
REMARK  122  A    between atoms: _291  and  _292
REMARK  123  A    between atoms: _291  and  _294
REMARK  124  A    between atoms: _294  and  _295
REMARK  125  A    between atoms: _297  and  _299
REMARK  126  A    between atoms: _299  and  _300
REMARK  127  A    between atoms: _299  and  _302
REMARK  128  A    between atoms: _306  and  _307
REMARK  129  A    between atoms: _312  and  _314
REMARK  130  A    between atoms: _314  and  _315
REMARK  131  A    between atoms: _318  and  _320
REMARK  132  A    between atoms: _320  and  _321
REMARK  133  A    between atoms: _324  and  _326
REMARK  134  A    between atoms: _326  and  _327
REMARK  135  A    between atoms: _326  and  _329
REMARK  136  A    between atoms: _329  and  _330
REMARK  137  A    between atoms: _330  and  _331
REMARK  138  A    between atoms: _334  and  _336
REMARK  139  A    between atoms: _336  and  _337
REMARK  140  A    between atoms: _336  and  _339
REMARK  141  A    between atoms: _339  and  _340
REMARK  142  A    between atoms: _346  and  _347
REMARK  143  A    between atoms: _352  and  _354
REMARK  144  A    between atoms: _354  and  _355
REMARK  145  A    between atoms: _354  and  _357
REMARK  146  A    between atoms: _360  and  _362
REMARK  147  A    between atoms: _362  and  _363
REMARK  148  A    between atoms: _362  and  _365
REMARK  149  A    between atoms: _365  and  _366
REMARK  150  A    between atoms: _368  and  _370
REMARK  151  A    between atoms: _370  and  _371
REMARK  152  A    between atoms: _370  and  _373
REMARK  153  A    between atoms: _376  and  _378
REMARK  154  A    between atoms: _378  and  _379
REMARK  155  A    between atoms: _378  and  _381
REMARK  156  A    between atoms: _384  and  _386
REMARK  157  A    between atoms: _386  and  _387
REMARK  158  A    between atoms: _386  and  _389
REMARK  159  A    between atoms: _389  and  _390
REMARK  160  A    between atoms: _393  and  _395
REMARK  161  A    between atoms: _395  and  _396
REMARK  162  A    between atoms: _395  and  _398
REMARK  163  A    between atoms: _398  and  _399
REMARK  164  A    between atoms: _399  and  _400
REMARK  165  A    between atoms: _405  and  _407
REMARK  166  A    between atoms: _407  and  _408
REMARK  167  A    between atoms: _412  and  _413
REMARK  168  A    between atoms: _418  and  _420
REMARK  169  A    between atoms: _420  and  _421
REMARK  170  A    between atoms: _420  and  _423
REMARK  171  A    between atoms: _423  and  _424
REMARK  172  A    between atoms: _427  and  _429
REMARK  173  A    between atoms: _429  and  _430
REMARK  174  A    between atoms: _429  and  _432
REMARK  175  A    between atoms: _432  and  _433
REMARK  176  A    between atoms: _436  and  _438
REMARK  177  A    between atoms: _438  and  _439
REMARK  178  A    between atoms: _438  and  _441
REMARK  179  A    between atoms: _441  and  _442
REMARK  180  A    between atoms: _445  and  _447
REMARK  181  A    between atoms: _447  and  _448
REMARK  182  A    between atoms: _447  and  _450
REMARK  183  A    between atoms: _450  and  _451
REMARK  184  A    between atoms: _451  and  _452
REMARK  185  A    between atoms: _452  and  _453
REMARK  186  A    between atoms: _463  and  _464
REMARK  187  A    between atoms: _469  and  _471
REMARK  188  A    between atoms: _471  and  _472
REMARK  189  A    between atoms: _471  and  _474
REMARK  190  A    between atoms: _474  and  _475
REMARK  191  A    between atoms: _478  and  _480
REMARK  192  A    between atoms: _480  and  _481
REMARK  193  A    between atoms: _480  and  _483
REMARK  194  A    between atoms: _483  and  _484
REMARK  195  A    between atoms: _487  and  _489
REMARK  196  A    between atoms: _489  and  _490
REMARK  197  A    between atoms: _489  and  _492
REMARK  198  A    between atoms: _492  and  _493
REMARK  199  A    between atoms: _497  and  _498
REMARK  200  A    between atoms: _503  and  _505
REMARK  201  A    between atoms: _505  and  _506
REMARK  202  A    between atoms: _505  and  _508
REMARK  203  A    between atoms: _508  and  _509
REMARK  204  A    between atoms: _512  and  _514
REMARK  205  A    between atoms: _514  and  _515
REMARK  206  A    between atoms: _514  and  _517
REMARK  207  A    between atoms: _517  and  _518
REMARK  208  A    between atoms: _518  and  _519
REMARK  209  A    between atoms: _519  and  _520
REMARK  210  A    between atoms: _529  and  _531
REMARK  211  A    between atoms: _531  and  _532
REMARK  212  A    between atoms: _531  and  _534
REMARK  213  A    between atoms: _537  and  _539
REMARK  214  A    between atoms: _539  and  _540
REMARK  215  A    between atoms: _539  and  _542
REMARK  216  A    between atoms: _542  and  _543
REMARK  217  A    between atoms: _546  and  _548
REMARK  218  A    between atoms: _548  and  _549
REMARK  219  A    between atoms: _548  and  _551
REMARK  220  A    between atoms: _551  and  _552
REMARK  221  A    between atoms: _552  and  _553
REMARK  222  A    between atoms: _558  and  _560
REMARK  223  A    between atoms: _560  and  _561
REMARK  224  A    between atoms: _563  and  _565
REMARK  225  A    between atoms: _565  and  _566
REMARK  226  A    between atoms: _565  and  _568
REMARK  227  A    between atoms: _568  and  _569
REMARK  228  A    between atoms: _572  and  _574
REMARK  229  A    between atoms: _574  and  _575
REMARK  230  A    between atoms: _574  and  _577
REMARK  231  A    between atoms: _577  and  _578
REMARK  232  A    between atoms: _580  and  _582
REMARK  233  A    between atoms: _582  and  _583
REMARK  234  A    between atoms: _582  and  _585
REMARK  235  A    between atoms: _585  and  _586
REMARK  236  A    between atoms: _589  and  _591
REMARK  237  A    between atoms: _591  and  _592
REMARK  238  A    between atoms: _591  and  _594
REMARK  239  A    between atoms: _594  and  _595
REMARK  240  A    between atoms: _595  and  _596
REMARK  241  A    between atoms: _599  and  _601
REMARK  242  A    between atoms: _601  and  _602
REMARK  243  A    between atoms: _601  and  _604
REMARK  244  A    between atoms: _604  and  _605
REMARK  245  A    between atoms: _610  and  _612
REMARK  246  A    between atoms: _612  and  _613
REMARK  247  A    between atoms: _612  and  _615
REMARK  248  A    between atoms: _615  and  _616
REMARK  249  A    between atoms: _619  and  _621
REMARK  250  A    between atoms: _621  and  _622
REMARK  251  A    between atoms: _625  and  _627
REMARK  252  A    between atoms: _627  and  _628
REMARK  253  A    between atoms: _627  and  _630
REMARK  254  A    between atoms: _630  and  _631
REMARK  255  A    between atoms: _637  and  _639
REMARK  256  A    between atoms: _639  and  _640
REMARK  257  A    between atoms: _642  and  _644
REMARK  258  A    between atoms: _644  and  _645
REMARK  259  A    between atoms: _644  and  _647
REMARK  260  A    between atoms: _647  and  _648
REMARK  261  A    between atoms: _650  and  _652
REMARK  262  A    between atoms: _652  and  _653
REMARK                            x       y       z     vdW  Elec       q    Type
REMARK                         _______ _______ _______ _____ _____    ______ ____
ROOT
ATOM      1  O   HOH     1       5.430   1.468  49.061  0.00  0.00    +0.000 OA
ENDROOT
TORSDOF 0
REMARK  Name = ../refined-set-2016/2gvj/2gvj_pocket.pdb
REMARK  262 active torsions:
REMARK  status: ('A' for Active; 'I' for Inactive)
REMARK    1  A    between atoms: _1  and  _3
REMARK    2  A    between atoms: _3  and  _4
REMARK    3  A    between atoms: _3  and  _6
REMARK    4  A    between atoms: _6  and  _7
REMARK    5  A    between atoms: _10  and  _12
REMARK    6  A    between atoms: _12  and  _13
REMARK    7  A    between atoms: _12  and  _15
REMARK    8  A    between atoms: _15  and  _16
REMARK    9  A    between atoms: _19  and  _21
REMARK   10  A    between atoms: _21  and  _22
REMARK   11  A    between atoms: _21  and  _24
REMARK   12  A    between atoms: _24  and  _25
REMARK   13  A    between atoms: _27  and  _29
REMARK   14  A    between atoms: _29  and  _30
REMARK   15  A    between atoms: _29  and  _32
REMARK   16  A    between atoms: _32  and  _33
REMARK   17  A    between atoms: _38  and  _39
REMARK   18  A    between atoms: _41  and  _43
REMARK   19  A    between atoms: _43  and  _44
REMARK   20  A    between atoms: _43  and  _46
REMARK   21  A    between atoms: _46  and  _47
REMARK   22  A    between atoms: _47  and  _48
REMARK   23  A    between atoms: _48  and  _49
REMARK   24  A    between atoms: _49  and  _50
REMARK   25  A    between atoms: _54  and  _56
REMARK   26  A    between atoms: _56  and  _57
REMARK   27  A    between atoms: _56  and  _59
REMARK   28  A    between atoms: _59  and  _60
REMARK   29  A    between atoms: _65  and  _67
REMARK   30  A    between atoms: _67  and  _68
REMARK   31  A    between atoms: _67  and  _70
REMARK   32  A    between atoms: _70  and  _71
REMARK   33  A    between atoms: _71  and  _72
REMARK   34  A    between atoms: _75  and  _77
REMARK   35  A    between atoms: _77  and  _78
REMARK   36  A    between atoms: _77  and  _80
REMARK   37  A    between atoms: _80  and  _81
REMARK   38  A    between atoms: _84  and  _86
REMARK   39  A    between atoms: _86  and  _87
REMARK   40  A    between atoms: _86  and  _89
REMARK   41  A    between atoms: _89  and  _90
REMARK   42  A    between atoms: _90  and  _91
REMARK   43  A    between atoms: _91  and  _92
REMARK   44  A    between atoms: _101  and  _103
REMARK   45  A    between atoms: _103  and  _104
REMARK   46  A    between atoms: _103  and  _106
REMARK   47  A    between atoms: _106  and  _107
REMARK   48  A    between atoms: _110  and  _112
REMARK   49  A    between atoms: _112  and  _113
REMARK   50  A    between atoms: _112  and  _115
REMARK   51  A    between atoms: _115  and  _116
REMARK   52  A    between atoms: _119  and  _121
REMARK   53  A    between atoms: _121  and  _122
REMARK   54  A    between atoms: _124  and  _126
REMARK   55  A    between atoms: _126  and  _127
REMARK   56  A    between atoms: _126  and  _129
REMARK   57  A    between atoms: _129  and  _130
REMARK   58  A    between atoms: _130  and  _131
REMARK   59  A    between atoms: _134  and  _136
REMARK   60  A    between atoms: _136  and  _137
REMARK   61  A    between atoms: _136  and  _139
REMARK   62  A    between atoms: _139  and  _140
REMARK   63  A    between atoms: _145  and  _146
REMARK   64  A    between atoms: _148  and  _150
REMARK   65  A    between atoms: _150  and  _151
REMARK   66  A    between atoms: _150  and  _153
REMARK   67  A    between atoms: _153  and  _154
REMARK   68  A    between atoms: _154  and  _155
REMARK   69  A    between atoms: _155  and  _156
REMARK   70  A    between atoms: _156  and  _157
REMARK   71  A    between atoms: _161  and  _163
REMARK   72  A    between atoms: _163  and  _164
REMARK   73  A    between atoms: _163  and  _166
REMARK   74  A    between atoms: _166  and  _167
REMARK   75  A    between atoms: _170  and  _172
REMARK   76  A    between atoms: _172  and  _173
REMARK   77  A    between atoms: _172  and  _175
REMARK   78  A    between atoms: _175  and  _176
REMARK   79  A    between atoms: _181  and  _183
REMARK   80  A    between atoms: _183  and  _184
REMARK   81  A    between atoms: _183  and  _186
REMARK   82  A    between atoms: _186  and  _187
REMARK   83  A    between atoms: _190  and  _192
REMARK   84  A    between atoms: _192  and  _193
REMARK   85  A    between atoms: _192  and  _195
REMARK   86  A    between atoms: _195  and  _196
REMARK   87  A    between atoms: _202  and  _204
REMARK   88  A    between atoms: _204  and  _205
REMARK   89  A    between atoms: _207  and  _209
REMARK   90  A    between atoms: _209  and  _210
REMARK   91  A    between atoms: _209  and  _212
REMARK   92  A    between atoms: _212  and  _213
REMARK   93  A    between atoms: _218  and  _219
REMARK   94  A    between atoms: _221  and  _223
REMARK   95  A    between atoms: _223  and  _224
REMARK   96  A    between atoms: _223  and  _226
REMARK   97  A    between atoms: _226  and  _227
REMARK   98  A    between atoms: _227  and  _228
REMARK   99  A    between atoms: _228  and  _229
REMARK  100  A    between atoms: _238  and  _240
REMARK  101  A    between atoms: _240  and  _241
REMARK  102  A    between atoms: _243  and  _245
REMARK  103  A    between atoms: _245  and  _246
REMARK  104  A    between atoms: _248  and  _250
REMARK  105  A    between atoms: _250  and  _251
REMARK  106  A    between atoms: _250  and  _253
REMARK  107  A    between atoms: _253  and  _254
REMARK  108  A    between atoms: _257  and  _259
REMARK  109  A    between atoms: _259  and  _260
REMARK  110  A    between atoms: _259  and  _262
REMARK  111  A    between atoms: _262  and  _263
REMARK  112  A    between atoms: _266  and  _268
REMARK  113  A    between atoms: _268  and  _269
REMARK  114  A    between atoms: _268  and  _271
REMARK  115  A    between atoms: _271  and  _272
REMARK  116  A    between atoms: _275  and  _277
REMARK  117  A    between atoms: _277  and  _278
REMARK  118  A    between atoms: _277  and  _280
REMARK  119  A    between atoms: _280  and  _281
REMARK  120  A    between atoms: _286  and  _287
REMARK  121  A    between atoms: _289  and  _291
REMARK  122  A    between atoms: _291  and  _292
REMARK  123  A    between atoms: _291  and  _294
REMARK  124  A    between atoms: _294  and  _295
REMARK  125  A    between atoms: _297  and  _299
REMARK  126  A    between atoms: _299  and  _300
REMARK  127  A    between atoms: _299  and  _302
REMARK  128  A    between atoms: _306  and  _307
REMARK  129  A    between atoms: _312  and  _314
REMARK  130  A    between atoms: _314  and  _315
REMARK  131  A    between atoms: _318  and  _320
REMARK  132  A    between atoms: _320  and  _321
REMARK  133  A    between atoms: _324  and  _326
REMARK  134  A    between atoms: _326  and  _327
REMARK  135  A    between atoms: _326  and  _329
REMARK  136  A    between atoms: _329  and  _330
REMARK  137  A    between atoms: _330  and  _331
REMARK  138  A    between atoms: _334  and  _336
REMARK  139  A    between atoms: _336  and  _337
REMARK  140  A    between atoms: _336  and  _339
REMARK  141  A    between atoms: _339  and  _340
REMARK  142  A    between atoms: _346  and  _347
REMARK  143  A    between atoms: _352  and  _354
REMARK  144  A    between atoms: _354  and  _355
REMARK  145  A    between atoms: _354  and  _357
REMARK  146  A    between atoms: _360  and  _362
REMARK  147  A    between atoms: _362  and  _363
REMARK  148  A    between atoms: _362  and  _365
REMARK  149  A    between atoms: _365  and  _366
REMARK  150  A    between atoms: _368  and  _370
REMARK  151  A    between atoms: _370  and  _371
REMARK  152  A    between atoms: _370  and  _373
REMARK  153  A    between atoms: _376  and  _378
REMARK  154  A    between atoms: _378  and  _379
REMARK  155  A    between atoms: _378  and  _381
REMARK  156  A    between atoms: _384  and  _386
REMARK  157  A    between atoms: _386  and  _387
REMARK  158  A    between atoms: _386  and  _389
REMARK  159  A    between atoms: _389  and  _390
REMARK  160  A    between atoms: _393  and  _395
REMARK  161  A    between atoms: _395  and  _396
REMARK  162  A    between atoms: _395  and  _398
REMARK  163  A    between atoms: _398  and  _399
REMARK  164  A    between atoms: _399  and  _400
REMARK  165  A    between atoms: _405  and  _407
REMARK  166  A    between atoms: _407  and  _408
REMARK  167  A    between atoms: _412  and  _413
REMARK  168  A    between atoms: _418  and  _420
REMARK  169  A    between atoms: _420  and  _421
REMARK  170  A    between atoms: _420  and  _423
REMARK  171  A    between atoms: _423  and  _424
REMARK  172  A    between atoms: _427  and  _429
REMARK  173  A    between atoms: _429  and  _430
REMARK  174  A    between atoms: _429  and  _432
REMARK  175  A    between atoms: _432  and  _433
REMARK  176  A    between atoms: _436  and  _438
REMARK  177  A    between atoms: _438  and  _439
REMARK  178  A    between atoms: _438  and  _441
REMARK  179  A    between atoms: _441  and  _442
REMARK  180  A    between atoms: _445  and  _447
REMARK  181  A    between atoms: _447  and  _448
REMARK  182  A    between atoms: _447  and  _450
REMARK  183  A    between atoms: _450  and  _451
REMARK  184  A    between atoms: _451  and  _452
REMARK  185  A    between atoms: _452  and  _453
REMARK  186  A    between atoms: _463  and  _464
REMARK  187  A    between atoms: _469  and  _471
REMARK  188  A    between atoms: _471  and  _472
REMARK  189  A    between atoms: _471  and  _474
REMARK  190  A    between atoms: _474  and  _475
REMARK  191  A    between atoms: _478  and  _480
REMARK  192  A    between atoms: _480  and  _481
REMARK  193  A    between atoms: _480  and  _483
REMARK  194  A    between atoms: _483  and  _484
REMARK  195  A    between atoms: _487  and  _489
REMARK  196  A    between atoms: _489  and  _490
REMARK  197  A    between atoms: _489  and  _492
REMARK  198  A    between atoms: _492  and  _493
REMARK  199  A    between atoms: _497  and  _498
REMARK  200  A    between atoms: _503  and  _505
REMARK  201  A    between atoms: _505  and  _506
REMARK  202  A    between atoms: _505  and  _508
REMARK  203  A    between atoms: _508  and  _509
REMARK  204  A    between atoms: _512  and  _514
REMARK  205  A    between atoms: _514  and  _515
REMARK  206  A    between atoms: _514  and  _517
REMARK  207  A    between atoms: _517  and  _518
REMARK  208  A    between atoms: _518  and  _519
REMARK  209  A    between atoms: _519  and  _520
REMARK  210  A    between atoms: _529  and  _531
REMARK  211  A    between atoms: _531  and  _532
REMARK  212  A    between atoms: _531  and  _534
REMARK  213  A    between atoms: _537  and  _539
REMARK  214  A    between atoms: _539  and  _540
REMARK  215  A    between atoms: _539  and  _542
REMARK  216  A    between atoms: _542  and  _543
REMARK  217  A    between atoms: _546  and  _548
REMARK  218  A    between atoms: _548  and  _549
REMARK  219  A    between atoms: _548  and  _551
REMARK  220  A    between atoms: _551  and  _552
REMARK  221  A    between atoms: _552  and  _553
REMARK  222  A    between atoms: _558  and  _560
REMARK  223  A    between atoms: _560  and  _561
REMARK  224  A    between atoms: _563  and  _565
REMARK  225  A    between atoms: _565  and  _566
REMARK  226  A    between atoms: _565  and  _568
REMARK  227  A    between atoms: _568  and  _569
REMARK  228  A    between atoms: _572  and  _574
REMARK  229  A    between atoms: _574  and  _575
REMARK  230  A    between atoms: _574  and  _577
REMARK  231  A    between atoms: _577  and  _578
REMARK  232  A    between atoms: _580  and  _582
REMARK  233  A    between atoms: _582  and  _583
REMARK  234  A    between atoms: _582  and  _585
REMARK  235  A    between atoms: _585  and  _586
REMARK  236  A    between atoms: _589  and  _591
REMARK  237  A    between atoms: _591  and  _592
REMARK  238  A    between atoms: _591  and  _594
REMARK  239  A    between atoms: _594  and  _595
REMARK  240  A    between atoms: _595  and  _596
REMARK  241  A    between atoms: _599  and  _601
REMARK  242  A    between atoms: _601  and  _602
REMARK  243  A    between atoms: _601  and  _604
REMARK  244  A    between atoms: _604  and  _605
REMARK  245  A    between atoms: _610  and  _612
REMARK  246  A    between atoms: _612  and  _613
REMARK  247  A    between atoms: _612  and  _615
REMARK  248  A    between atoms: _615  and  _616
REMARK  249  A    between atoms: _619  and  _621
REMARK  250  A    between atoms: _621  and  _622
REMARK  251  A    between atoms: _625  and  _627
REMARK  252  A    between atoms: _627  and  _628
REMARK  253  A    between atoms: _627  and  _630
REMARK  254  A    between atoms: _630  and  _631
REMARK  255  A    between atoms: _637  and  _639
REMARK  256  A    between atoms: _639  and  _640
REMARK  257  A    between atoms: _642  and  _644
REMARK  258  A    between atoms: _644  and  _645
REMARK  259  A    between atoms: _644  and  _647
REMARK  260  A    between atoms: _647  and  _648
REMARK  261  A    between atoms: _650  and  _652
REMARK  262  A    between atoms: _652  and  _653
REMARK                            x       y       z     vdW  Elec       q    Type
REMARK                         _______ _______ _______ _____ _____    ______ ____
ROOT
ATOM      1  O   HOH     1       6.731 -14.484  31.455  0.00  0.00    +0.000 OA
ENDROOT
TORSDOF 0
REMARK  Name = ../refined-set-2016/2gvj/2gvj_pocket.pdb
REMARK  262 active torsions:
REMARK  status: ('A' for Active; 'I' for Inactive)
REMARK    1  A    between atoms: _1  and  _3
REMARK    2  A    between atoms: _3  and  _4
REMARK    3  A    between atoms: _3  and  _6
REMARK    4  A    between atoms: _6  and  _7
REMARK    5  A    between atoms: _10  and  _12
REMARK    6  A    between atoms: _12  and  _13
REMARK    7  A    between atoms: _12  and  _15
REMARK    8  A    between atoms: _15  and  _16
REMARK    9  A    between atoms: _19  and  _21
REMARK   10  A    between atoms: _21  and  _22
REMARK   11  A    between atoms: _21  and  _24
REMARK   12  A    between atoms: _24  and  _25
REMARK   13  A    between atoms: _27  and  _29
REMARK   14  A    between atoms: _29  and  _30
REMARK   15  A    between atoms: _29  and  _32
REMARK   16  A    between atoms: _32  and  _33
REMARK   17  A    between atoms: _38  and  _39
REMARK   18  A    between atoms: _41  and  _43
REMARK   19  A    between atoms: _43  and  _44
REMARK   20  A    between atoms: _43  and  _46
REMARK   21  A    between atoms: _46  and  _47
REMARK   22  A    between atoms: _47  and  _48
REMARK   23  A    between atoms: _48  and  _49
REMARK   24  A    between atoms: _49  and  _50
REMARK   25  A    between atoms: _54  and  _56
REMARK   26  A    between atoms: _56  and  _57
REMARK   27  A    between atoms: _56  and  _59
REMARK   28  A    between atoms: _59  and  _60
REMARK   29  A    between atoms: _65  and  _67
REMARK   30  A    between atoms: _67  and  _68
REMARK   31  A    between atoms: _67  and  _70
REMARK   32  A    between atoms: _70  and  _71
REMARK   33  A    between atoms: _71  and  _72
REMARK   34  A    between atoms: _75  and  _77
REMARK   35  A    between atoms: _77  and  _78
REMARK   36  A    between atoms: _77  and  _80
REMARK   37  A    between atoms: _80  and  _81
REMARK   38  A    between atoms: _84  and  _86
REMARK   39  A    between atoms: _86  and  _87
REMARK   40  A    between atoms: _86  and  _89
REMARK   41  A    between atoms: _89  and  _90
REMARK   42  A    between atoms: _90  and  _91
REMARK   43  A    between atoms: _91  and  _92
REMARK   44  A    between atoms: _101  and  _103
REMARK   45  A    between atoms: _103  and  _104
REMARK   46  A    between atoms: _103  and  _106
REMARK   47  A    between atoms: _106  and  _107
REMARK   48  A    between atoms: _110  and  _112
REMARK   49  A    between atoms: _112  and  _113
REMARK   50  A    between atoms: _112  and  _115
REMARK   51  A    between atoms: _115  and  _116
REMARK   52  A    between atoms: _119  and  _121
REMARK   53  A    between atoms: _121  and  _122
REMARK   54  A    between atoms: _124  and  _126
REMARK   55  A    between atoms: _126  and  _127
REMARK   56  A    between atoms: _126  and  _129
REMARK   57  A    between atoms: _129  and  _130
REMARK   58  A    between atoms: _130  and  _131
REMARK   59  A    between atoms: _134  and  _136
REMARK   60  A    between atoms: _136  and  _137
REMARK   61  A    between atoms: _136  and  _139
REMARK   62  A    between atoms: _139  and  _140
REMARK   63  A    between atoms: _145  and  _146
REMARK   64  A    between atoms: _148  and  _150
REMARK   65  A    between atoms: _150  and  _151
REMARK   66  A    between atoms: _150  and  _153
REMARK   67  A    between atoms: _153  and  _154
REMARK   68  A    between atoms: _154  and  _155
REMARK   69  A    between atoms: _155  and  _156
REMARK   70  A    between atoms: _156  and  _157
REMARK   71  A    between atoms: _161  and  _163
REMARK   72  A    between atoms: _163  and  _164
REMARK   73  A    between atoms: _163  and  _166
REMARK   74  A    between atoms: _166  and  _167
REMARK   75  A    between atoms: _170  and  _172
REMARK   76  A    between atoms: _172  and  _173
REMARK   77  A    between atoms: _172  and  _175
REMARK   78  A    between atoms: _175  and  _176
REMARK   79  A    between atoms: _181  and  _183
REMARK   80  A    between atoms: _183  and  _184
REMARK   81  A    between atoms: _183  and  _186
REMARK   82  A    between atoms: _186  and  _187
REMARK   83  A    between atoms: _190  and  _192
REMARK   84  A    between atoms: _192  and  _193
REMARK   85  A    between atoms: _192  and  _195
REMARK   86  A    between atoms: _195  and  _196
REMARK   87  A    between atoms: _202  and  _204
REMARK   88  A    between atoms: _204  and  _205
REMARK   89  A    between atoms: _207  and  _209
REMARK   90  A    between atoms: _209  and  _210
REMARK   91  A    between atoms: _209  and  _212
REMARK   92  A    between atoms: _212  and  _213
REMARK   93  A    between atoms: _218  and  _219
REMARK   94  A    between atoms: _221  and  _223
REMARK   95  A    between atoms: _223  and  _224
REMARK   96  A    between atoms: _223  and  _226
REMARK   97  A    between atoms: _226  and  _227
REMARK   98  A    between atoms: _227  and  _228
REMARK   99  A    between atoms: _228  and  _229
REMARK  100  A    between atoms: _238  and  _240
REMARK  101  A    between atoms: _240  and  _241
REMARK  102  A    between atoms: _243  and  _245
REMARK  103  A    between atoms: _245  and  _246
REMARK  104  A    between atoms: _248  and  _250
REMARK  105  A    between atoms: _250  and  _251
REMARK  106  A    between atoms: _250  and  _253
REMARK  107  A    between atoms: _253  and  _254
REMARK  108  A    between atoms: _257  and  _259
REMARK  109  A    between atoms: _259  and  _260
REMARK  110  A    between atoms: _259  and  _262
REMARK  111  A    between atoms: _262  and  _263
REMARK  112  A    between atoms: _266  and  _268
REMARK  113  A    between atoms: _268  and  _269
REMARK  114  A    between atoms: _268  and  _271
REMARK  115  A    between atoms: _271  and  _272
REMARK  116  A    between atoms: _275  and  _277
REMARK  117  A    between atoms: _277  and  _278
REMARK  118  A    between atoms: _277  and  _280
REMARK  119  A    between atoms: _280  and  _281
REMARK  120  A    between atoms: _286  and  _287
REMARK  121  A    between atoms: _289  and  _291
REMARK  122  A    between atoms: _291  and  _292
REMARK  123  A    between atoms: _291  and  _294
REMARK  124  A    between atoms: _294  and  _295
REMARK  125  A    between atoms: _297  and  _299
REMARK  126  A    between atoms: _299  and  _300
REMARK  127  A    between atoms: _299  and  _302
REMARK  128  A    between atoms: _306  and  _307
REMARK  129  A    between atoms: _312  and  _314
REMARK  130  A    between atoms: _314  and  _315
REMARK  131  A    between atoms: _318  and  _320
REMARK  132  A    between atoms: _320  and  _321
REMARK  133  A    between atoms: _324  and  _326
REMARK  134  A    between atoms: _326  and  _327
REMARK  135  A    between atoms: _326  and  _329
REMARK  136  A    between atoms: _329  and  _330
REMARK  137  A    between atoms: _330  and  _331
REMARK  138  A    between atoms: _334  and  _336
REMARK  139  A    between atoms: _336  and  _337
REMARK  140  A    between atoms: _336  and  _339
REMARK  141  A    between atoms: _339  and  _340
REMARK  142  A    between atoms: _346  and  _347
REMARK  143  A    between atoms: _352  and  _354
REMARK  144  A    between atoms: _354  and  _355
REMARK  145  A    between atoms: _354  and  _357
REMARK  146  A    between atoms: _360  and  _362
REMARK  147  A    between atoms: _362  and  _363
REMARK  148  A    between atoms: _362  and  _365
REMARK  149  A    between atoms: _365  and  _366
REMARK  150  A    between atoms: _368  and  _370
REMARK  151  A    between atoms: _370  and  _371
REMARK  152  A    between atoms: _370  and  _373
REMARK  153  A    between atoms: _376  and  _378
REMARK  154  A    between atoms: _378  and  _379
REMARK  155  A    between atoms: _378  and  _381
REMARK  156  A    between atoms: _384  and  _386
REMARK  157  A    between atoms: _386  and  _387
REMARK  158  A    between atoms: _386  and  _389
REMARK  159  A    between atoms: _389  and  _390
REMARK  160  A    between atoms: _393  and  _395
REMARK  161  A    between atoms: _395  and  _396
REMARK  162  A    between atoms: _395  and  _398
REMARK  163  A    between atoms: _398  and  _399
REMARK  164  A    between atoms: _399  and  _400
REMARK  165  A    between atoms: _405  and  _407
REMARK  166  A    between atoms: _407  and  _408
REMARK  167  A    between atoms: _412  and  _413
REMARK  168  A    between atoms: _418  and  _420
REMARK  169  A    between atoms: _420  and  _421
REMARK  170  A    between atoms: _420  and  _423
REMARK  171  A    between atoms: _423  and  _424
REMARK  172  A    between atoms: _427  and  _429
REMARK  173  A    between atoms: _429  and  _430
REMARK  174  A    between atoms: _429  and  _432
REMARK  175  A    between atoms: _432  and  _433
REMARK  176  A    between atoms: _436  and  _438
REMARK  177  A    between atoms: _438  and  _439
REMARK  178  A    between atoms: _438  and  _441
REMARK  179  A    between atoms: _441  and  _442
REMARK  180  A    between atoms: _445  and  _447
REMARK  181  A    between atoms: _447  and  _448
REMARK  182  A    between atoms: _447  and  _450
REMARK  183  A    between atoms: _450  and  _451
REMARK  184  A    between atoms: _451  and  _452
REMARK  185  A    between atoms: _452  and  _453
REMARK  186  A    between atoms: _463  and  _464
REMARK  187  A    between atoms: _469  and  _471
REMARK  188  A    between atoms: _471  and  _472
REMARK  189  A    between atoms: _471  and  _474
REMARK  190  A    between atoms: _474  and  _475
REMARK  191  A    between atoms: _478  and  _480
REMARK  192  A    between atoms: _480  and  _481
REMARK  193  A    between atoms: _480  and  _483
REMARK  194  A    between atoms: _483  and  _484
REMARK  195  A    between atoms: _487  and  _489
REMARK  196  A    between atoms: _489  and  _490
REMARK  197  A    between atoms: _489  and  _492
REMARK  198  A    between atoms: _492  and  _493
REMARK  199  A    between atoms: _497  and  _498
REMARK  200  A    between atoms: _503  and  _505
REMARK  201  A    between atoms: _505  and  _506
REMARK  202  A    between atoms: _505  and  _508
REMARK  203  A    between atoms: _508  and  _509
REMARK  204  A    between atoms: _512  and  _514
REMARK  205  A    between atoms: _514  and  _515
REMARK  206  A    between atoms: _514  and  _517
REMARK  207  A    between atoms: _517  and  _518
REMARK  208  A    between atoms: _518  and  _519
REMARK  209  A    between atoms: _519  and  _520
REMARK  210  A    between atoms: _529  and  _531
REMARK  211  A    between atoms: _531  and  _532
REMARK  212  A    between atoms: _531  and  _534
REMARK  213  A    between atoms: _537  and  _539
REMARK  214  A    between atoms: _539  and  _540
REMARK  215  A    between atoms: _539  and  _542
REMARK  216  A    between atoms: _542  and  _543
REMARK  217  A    between atoms: _546  and  _548
REMARK  218  A    between atoms: _548  and  _549
REMARK  219  A    between atoms: _548  and  _551
REMARK  220  A    between atoms: _551  and  _552
REMARK  221  A    between atoms: _552  and  _553
REMARK  222  A    between atoms: _558  and  _560
REMARK  223  A    between atoms: _560  and  _561
REMARK  224  A    between atoms: _563  and  _565
REMARK  225  A    between atoms: _565  and  _566
REMARK  226  A    between atoms: _565  and  _568
REMARK  227  A    between atoms: _568  and  _569
REMARK  228  A    between atoms: _572  and  _574
REMARK  229  A    between atoms: _574  and  _575
REMARK  230  A    between atoms: _574  and  _577
REMARK  231  A    between atoms: _577  and  _578
REMARK  232  A    between atoms: _580  and  _582
REMARK  233  A    between atoms: _582  and  _583
REMARK  234  A    between atoms: _582  and  _585
REMARK  235  A    between atoms: _585  and  _586
REMARK  236  A    between atoms: _589  and  _591
REMARK  237  A    between atoms: _591  and  _592
REMARK  238  A    between atoms: _591  and  _594
REMARK  239  A    between atoms: _594  and  _595
REMARK  240  A    between atoms: _595  and  _596
REMARK  241  A    between atoms: _599  and  _601
REMARK  242  A    between atoms: _601  and  _602
REMARK  243  A    between atoms: _601  and  _604
REMARK  244  A    between atoms: _604  and  _605
REMARK  245  A    between atoms: _610  and  _612
REMARK  246  A    between atoms: _612  and  _613
REMARK  247  A    between atoms: _612  and  _615
REMARK  248  A    between atoms: _615  and  _616
REMARK  249  A    between atoms: _619  and  _621
REMARK  250  A    between atoms: _621  and  _622
REMARK  251  A    between atoms: _625  and  _627
REMARK  252  A    between atoms: _627  and  _628
REMARK  253  A    between atoms: _627  and  _630
REMARK  254  A    between atoms: _630  and  _631
REMARK  255  A    between atoms: _637  and  _639
REMARK  256  A    between atoms: _639  and  _640
REMARK  257  A    between atoms: _642  and  _644
REMARK  258  A    between atoms: _644  and  _645
REMARK  259  A    between atoms: _644  and  _647
REMARK  260  A    between atoms: _647  and  _648
REMARK  261  A    between atoms: _650  and  _652
REMARK  262  A    between atoms: _652  and  _653
REMARK                            x       y       z     vdW  Elec       q    Type
REMARK                         _______ _______ _______ _____ _____    ______ ____
ROOT
ATOM      1  O   HOH     1      15.247  -3.142  51.903  0.00  0.00    +0.000 OA
ENDROOT
TORSDOF 0
REMARK  Name = ../refined-set-2016/2gvj/2gvj_pocket.pdb
REMARK  262 active torsions:
REMARK  status: ('A' for Active; 'I' for Inactive)
REMARK    1  A    between atoms: _1  and  _3
REMARK    2  A    between atoms: _3  and  _4
REMARK    3  A    between atoms: _3  and  _6
REMARK    4  A    between atoms: _6  and  _7
REMARK    5  A    between atoms: _10  and  _12
REMARK    6  A    between atoms: _12  and  _13
REMARK    7  A    between atoms: _12  and  _15
REMARK    8  A    between atoms: _15  and  _16
REMARK    9  A    between atoms: _19  and  _21
REMARK   10  A    between atoms: _21  and  _22
REMARK   11  A    between atoms: _21  and  _24
REMARK   12  A    between atoms: _24  and  _25
REMARK   13  A    between atoms: _27  and  _29
REMARK   14  A    between atoms: _29  and  _30
REMARK   15  A    between atoms: _29  and  _32
REMARK   16  A    between atoms: _32  and  _33
REMARK   17  A    between atoms: _38  and  _39
REMARK   18  A    between atoms: _41  and  _43
REMARK   19  A    between atoms: _43  and  _44
REMARK   20  A    between atoms: _43  and  _46
REMARK   21  A    between atoms: _46  and  _47
REMARK   22  A    between atoms: _47  and  _48
REMARK   23  A    between atoms: _48  and  _49
REMARK   24  A    between atoms: _49  and  _50
REMARK   25  A    between atoms: _54  and  _56
REMARK   26  A    between atoms: _56  and  _57
REMARK   27  A    between atoms: _56  and  _59
REMARK   28  A    between atoms: _59  and  _60
REMARK   29  A    between atoms: _65  and  _67
REMARK   30  A    between atoms: _67  and  _68
REMARK   31  A    between atoms: _67  and  _70
REMARK   32  A    between atoms: _70  and  _71
REMARK   33  A    between atoms: _71  and  _72
REMARK   34  A    between atoms: _75  and  _77
REMARK   35  A    between atoms: _77  and  _78
REMARK   36  A    between atoms: _77  and  _80
REMARK   37  A    between atoms: _80  and  _81
REMARK   38  A    between atoms: _84  and  _86
REMARK   39  A    between atoms: _86  and  _87
REMARK   40  A    between atoms: _86  and  _89
REMARK   41  A    between atoms: _89  and  _90
REMARK   42  A    between atoms: _90  and  _91
REMARK   43  A    between atoms: _91  and  _92
REMARK   44  A    between atoms: _101  and  _103
REMARK   45  A    between atoms: _103  and  _104
REMARK   46  A    between atoms: _103  and  _106
REMARK   47  A    between atoms: _106  and  _107
REMARK   48  A    between atoms: _110  and  _112
REMARK   49  A    between atoms: _112  and  _113
REMARK   50  A    between atoms: _112  and  _115
REMARK   51  A    between atoms: _115  and  _116
REMARK   52  A    between atoms: _119  and  _121
REMARK   53  A    between atoms: _121  and  _122
REMARK   54  A    between atoms: _124  and  _126
REMARK   55  A    between atoms: _126  and  _127
REMARK   56  A    between atoms: _126  and  _129
REMARK   57  A    between atoms: _129  and  _130
REMARK   58  A    between atoms: _130  and  _131
REMARK   59  A    between atoms: _134  and  _136
REMARK   60  A    between atoms: _136  and  _137
REMARK   61  A    between atoms: _136  and  _139
REMARK   62  A    between atoms: _139  and  _140
REMARK   63  A    between atoms: _145  and  _146
REMARK   64  A    between atoms: _148  and  _150
REMARK   65  A    between atoms: _150  and  _151
REMARK   66  A    between atoms: _150  and  _153
REMARK   67  A    between atoms: _153  and  _154
REMARK   68  A    between atoms: _154  and  _155
REMARK   69  A    between atoms: _155  and  _156
REMARK   70  A    between atoms: _156  and  _157
REMARK   71  A    between atoms: _161  and  _163
REMARK   72  A    between atoms: _163  and  _164
REMARK   73  A    between atoms: _163  and  _166
REMARK   74  A    between atoms: _166  and  _167
REMARK   75  A    between atoms: _170  and  _172
REMARK   76  A    between atoms: _172  and  _173
REMARK   77  A    between atoms: _172  and  _175
REMARK   78  A    between atoms: _175  and  _176
REMARK   79  A    between atoms: _181  and  _183
REMARK   80  A    between atoms: _183  and  _184
REMARK   81  A    between atoms: _183  and  _186
REMARK   82  A    between atoms: _186  and  _187
REMARK   83  A    between atoms: _190  and  _192
REMARK   84  A    between atoms: _192  and  _193
REMARK   85  A    between atoms: _192  and  _195
REMARK   86  A    between atoms: _195  and  _196
REMARK   87  A    between atoms: _202  and  _204
REMARK   88  A    between atoms: _204  and  _205
REMARK   89  A    between atoms: _207  and  _209
REMARK   90  A    between atoms: _209  and  _210
REMARK   91  A    between atoms: _209  and  _212
REMARK   92  A    between atoms: _212  and  _213
REMARK   93  A    between atoms: _218  and  _219
REMARK   94  A    between atoms: _221  and  _223
REMARK   95  A    between atoms: _223  and  _224
REMARK   96  A    between atoms: _223  and  _226
REMARK   97  A    between atoms: _226  and  _227
REMARK   98  A    between atoms: _227  and  _228
REMARK   99  A    between atoms: _228  and  _229
REMARK  100  A    between atoms: _238  and  _240
REMARK  101  A    between atoms: _240  and  _241
REMARK  102  A    between atoms: _243  and  _245
REMARK  103  A    between atoms: _245  and  _246
REMARK  104  A    between atoms: _248  and  _250
REMARK  105  A    between atoms: _250  and  _251
REMARK  106  A    between atoms: _250  and  _253
REMARK  107  A    between atoms: _253  and  _254
REMARK  108  A    between atoms: _257  and  _259
REMARK  109  A    between atoms: _259  and  _260
REMARK  110  A    between atoms: _259  and  _262
REMARK  111  A    between atoms: _262  and  _263
REMARK  112  A    between atoms: _266  and  _268
REMARK  113  A    between atoms: _268  and  _269
REMARK  114  A    between atoms: _268  and  _271
REMARK  115  A    between atoms: _271  and  _272
REMARK  116  A    between atoms: _275  and  _277
REMARK  117  A    between atoms: _277  and  _278
REMARK  118  A    between atoms: _277  and  _280
REMARK  119  A    between atoms: _280  and  _281
REMARK  120  A    between atoms: _286  and  _287
REMARK  121  A    between atoms: _289  and  _291
REMARK  122  A    between atoms: _291  and  _292
REMARK  123  A    between atoms: _291  and  _294
REMARK  124  A    between atoms: _294  and  _295
REMARK  125  A    between atoms: _297  and  _299
REMARK  126  A    between atoms: _299  and  _300
REMARK  127  A    between atoms: _299  and  _302
REMARK  128  A    between atoms: _306  and  _307
REMARK  129  A    between atoms: _312  and  _314
REMARK  130  A    between atoms: _314  and  _315
REMARK  131  A    between atoms: _318  and  _320
REMARK  132  A    between atoms: _320  and  _321
REMARK  133  A    between atoms: _324  and  _326
REMARK  134  A    between atoms: _326  and  _327
REMARK  135  A    between atoms: _326  and  _329
REMARK  136  A    between atoms: _329  and  _330
REMARK  137  A    between atoms: _330  and  _331
REMARK  138  A    between atoms: _334  and  _336
REMARK  139  A    between atoms: _336  and  _337
REMARK  140  A    between atoms: _336  and  _339
REMARK  141  A    between atoms: _339  and  _340
REMARK  142  A    between atoms: _346  and  _347
REMARK  143  A    between atoms: _352  and  _354
REMARK  144  A    between atoms: _354  and  _355
REMARK  145  A    between atoms: _354  and  _357
REMARK  146  A    between atoms: _360  and  _362
REMARK  147  A    between atoms: _362  and  _363
REMARK  148  A    between atoms: _362  and  _365
REMARK  149  A    between atoms: _365  and  _366
REMARK  150  A    between atoms: _368  and  _370
REMARK  151  A    between atoms: _370  and  _371
REMARK  152  A    between atoms: _370  and  _373
REMARK  153  A    between atoms: _376  and  _378
REMARK  154  A    between atoms: _378  and  _379
REMARK  155  A    between atoms: _378  and  _381
REMARK  156  A    between atoms: _384  and  _386
REMARK  157  A    between atoms: _386  and  _387
REMARK  158  A    between atoms: _386  and  _389
REMARK  159  A    between atoms: _389  and  _390
REMARK  160  A    between atoms: _393  and  _395
REMARK  161  A    between atoms: _395  and  _396
REMARK  162  A    between atoms: _395  and  _398
REMARK  163  A    between atoms: _398  and  _399
REMARK  164  A    between atoms: _399  and  _400
REMARK  165  A    between atoms: _405  and  _407
REMARK  166  A    between atoms: _407  and  _408
REMARK  167  A    between atoms: _412  and  _413
REMARK  168  A    between atoms: _418  and  _420
REMARK  169  A    between atoms: _420  and  _421
REMARK  170  A    between atoms: _420  and  _423
REMARK  171  A    between atoms: _423  and  _424
REMARK  172  A    between atoms: _427  and  _429
REMARK  173  A    between atoms: _429  and  _430
REMARK  174  A    between atoms: _429  and  _432
REMARK  175  A    between atoms: _432  and  _433
REMARK  176  A    between atoms: _436  and  _438
REMARK  177  A    between atoms: _438  and  _439
REMARK  178  A    between atoms: _438  and  _441
REMARK  179  A    between atoms: _441  and  _442
REMARK  180  A    between atoms: _445  and  _447
REMARK  181  A    between atoms: _447  and  _448
REMARK  182  A    between atoms: _447  and  _450
REMARK  183  A    between atoms: _450  and  _451
REMARK  184  A    between atoms: _451  and  _452
REMARK  185  A    between atoms: _452  and  _453
REMARK  186  A    between atoms: _463  and  _464
REMARK  187  A    between atoms: _469  and  _471
REMARK  188  A    between atoms: _471  and  _472
REMARK  189  A    between atoms: _471  and  _474
REMARK  190  A    between atoms: _474  and  _475
REMARK  191  A    between atoms: _478  and  _480
REMARK  192  A    between atoms: _480  and  _481
REMARK  193  A    between atoms: _480  and  _483
REMARK  194  A    between atoms: _483  and  _484
REMARK  195  A    between atoms: _487  and  _489
REMARK  196  A    between atoms: _489  and  _490
REMARK  197  A    between atoms: _489  and  _492
REMARK  198  A    between atoms: _492  and  _493
REMARK  199  A    between atoms: _497  and  _498
REMARK  200  A    between atoms: _503  and  _505
REMARK  201  A    between atoms: _505  and  _506
REMARK  202  A    between atoms: _505  and  _508
REMARK  203  A    between atoms: _508  and  _509
REMARK  204  A    between atoms: _512  and  _514
REMARK  205  A    between atoms: _514  and  _515
REMARK  206  A    between atoms: _514  and  _517
REMARK  207  A    between atoms: _517  and  _518
REMARK  208  A    between atoms: _518  and  _519
REMARK  209  A    between atoms: _519  and  _520
REMARK  210  A    between atoms: _529  and  _531
REMARK  211  A    between atoms: _531  and  _532
REMARK  212  A    between atoms: _531  and  _534
REMARK  213  A    between atoms: _537  and  _539
REMARK  214  A    between atoms: _539  and  _540
REMARK  215  A    between atoms: _539  and  _542
REMARK  216  A    between atoms: _542  and  _543
REMARK  217  A    between atoms: _546  and  _548
REMARK  218  A    between atoms: _548  and  _549
REMARK  219  A    between atoms: _548  and  _551
REMARK  220  A    between atoms: _551  and  _552
REMARK  221  A    between atoms: _552  and  _553
REMARK  222  A    between atoms: _558  and  _560
REMARK  223  A    between atoms: _560  and  _561
REMARK  224  A    between atoms: _563  and  _565
REMARK  225  A    between atoms: _565  and  _566
REMARK  226  A    between atoms: _565  and  _568
REMARK  227  A    between atoms: _568  and  _569
REMARK  228  A    between atoms: _572  and  _574
REMARK  229  A    between atoms: _574  and  _575
REMARK  230  A    between atoms: _574  and  _577
REMARK  231  A    between atoms: _577  and  _578
REMARK  232  A    between atoms: _580  and  _582
REMARK  233  A    between atoms: _582  and  _583
REMARK  234  A    between atoms: _582  and  _585
REMARK  235  A    between atoms: _585  and  _586
REMARK  236  A    between atoms: _589  and  _591
REMARK  237  A    between atoms: _591  and  _592
REMARK  238  A    between atoms: _591  and  _594
REMARK  239  A    between atoms: _594  and  _595
REMARK  240  A    between atoms: _595  and  _596
REMARK  241  A    between atoms: _599  and  _601
REMARK  242  A    between atoms: _601  and  _602
REMARK  243  A    between atoms: _601  and  _604
REMARK  244  A    between atoms: _604  and  _605
REMARK  245  A    between atoms: _610  and  _612
REMARK  246  A    between atoms: _612  and  _613
REMARK  247  A    between atoms: _612  and  _615
REMARK  248  A    between atoms: _615  and  _616
REMARK  249  A    between atoms: _619  and  _621
REMARK  250  A    between atoms: _621  and  _622
REMARK  251  A    between atoms: _625  and  _627
REMARK  252  A    between atoms: _627  and  _628
REMARK  253  A    between atoms: _627  and  _630
REMARK  254  A    between atoms: _630  and  _631
REMARK  255  A    between atoms: _637  and  _639
REMARK  256  A    between atoms: _639  and  _640
REMARK  257  A    between atoms: _642  and  _644
REMARK  258  A    between atoms: _644  and  _645
REMARK  259  A    between atoms: _644  and  _647
REMARK  260  A    between atoms: _647  and  _648
REMARK  261  A    between atoms: _650  and  _652
REMARK  262  A    between atoms: _652  and  _653
REMARK                            x       y       z     vdW  Elec       q    Type
REMARK                         _______ _______ _______ _____ _____    ______ ____
ROOT
ATOM      1  O   HOH     1       8.990   3.505  51.920  0.00  0.00    +0.000 OA
ENDROOT
TORSDOF 0
REMARK  Name = ../refined-set-2016/2gvj/2gvj_pocket.pdb
REMARK  262 active torsions:
REMARK  status: ('A' for Active; 'I' for Inactive)
REMARK    1  A    between atoms: _1  and  _3
REMARK    2  A    between atoms: _3  and  _4
REMARK    3  A    between atoms: _3  and  _6
REMARK    4  A    between atoms: _6  and  _7
REMARK    5  A    between atoms: _10  and  _12
REMARK    6  A    between atoms: _12  and  _13
REMARK    7  A    between atoms: _12  and  _15
REMARK    8  A    between atoms: _15  and  _16
REMARK    9  A    between atoms: _19  and  _21
REMARK   10  A    between atoms: _21  and  _22
REMARK   11  A    between atoms: _21  and  _24
REMARK   12  A    between atoms: _24  and  _25
REMARK   13  A    between atoms: _27  and  _29
REMARK   14  A    between atoms: _29  and  _30
REMARK   15  A    between atoms: _29  and  _32
REMARK   16  A    between atoms: _32  and  _33
REMARK   17  A    between atoms: _38  and  _39
REMARK   18  A    between atoms: _41  and  _43
REMARK   19  A    between atoms: _43  and  _44
REMARK   20  A    between atoms: _43  and  _46
REMARK   21  A    between atoms: _46  and  _47
REMARK   22  A    between atoms: _47  and  _48
REMARK   23  A    between atoms: _48  and  _49
REMARK   24  A    between atoms: _49  and  _50
REMARK   25  A    between atoms: _54  and  _56
REMARK   26  A    between atoms: _56  and  _57
REMARK   27  A    between atoms: _56  and  _59
REMARK   28  A    between atoms: _59  and  _60
REMARK   29  A    between atoms: _65  and  _67
REMARK   30  A    between atoms: _67  and  _68
REMARK   31  A    between atoms: _67  and  _70
REMARK   32  A    between atoms: _70  and  _71
REMARK   33  A    between atoms: _71  and  _72
REMARK   34  A    between atoms: _75  and  _77
REMARK   35  A    between atoms: _77  and  _78
REMARK   36  A    between atoms: _77  and  _80
REMARK   37  A    between atoms: _80  and  _81
REMARK   38  A    between atoms: _84  and  _86
REMARK   39  A    between atoms: _86  and  _87
REMARK   40  A    between atoms: _86  and  _89
REMARK   41  A    between atoms: _89  and  _90
REMARK   42  A    between atoms: _90  and  _91
REMARK   43  A    between atoms: _91  and  _92
REMARK   44  A    between atoms: _101  and  _103
REMARK   45  A    between atoms: _103  and  _104
REMARK   46  A    between atoms: _103  and  _106
REMARK   47  A    between atoms: _106  and  _107
REMARK   48  A    between atoms: _110  and  _112
REMARK   49  A    between atoms: _112  and  _113
REMARK   50  A    between atoms: _112  and  _115
REMARK   51  A    between atoms: _115  and  _116
REMARK   52  A    between atoms: _119  and  _121
REMARK   53  A    between atoms: _121  and  _122
REMARK   54  A    between atoms: _124  and  _126
REMARK   55  A    between atoms: _126  and  _127
REMARK   56  A    between atoms: _126  and  _129
REMARK   57  A    between atoms: _129  and  _130
REMARK   58  A    between atoms: _130  and  _131
REMARK   59  A    between atoms: _134  and  _136
REMARK   60  A    between atoms: _136  and  _137
REMARK   61  A    between atoms: _136  and  _139
REMARK   62  A    between atoms: _139  and  _140
REMARK   63  A    between atoms: _145  and  _146
REMARK   64  A    between atoms: _148  and  _150
REMARK   65  A    between atoms: _150  and  _151
REMARK   66  A    between atoms: _150  and  _153
REMARK   67  A    between atoms: _153  and  _154
REMARK   68  A    between atoms: _154  and  _155
REMARK   69  A    between atoms: _155  and  _156
REMARK   70  A    between atoms: _156  and  _157
REMARK   71  A    between atoms: _161  and  _163
REMARK   72  A    between atoms: _163  and  _164
REMARK   73  A    between atoms: _163  and  _166
REMARK   74  A    between atoms: _166  and  _167
REMARK   75  A    between atoms: _170  and  _172
REMARK   76  A    between atoms: _172  and  _173
REMARK   77  A    between atoms: _172  and  _175
REMARK   78  A    between atoms: _175  and  _176
REMARK   79  A    between atoms: _181  and  _183
REMARK   80  A    between atoms: _183  and  _184
REMARK   81  A    between atoms: _183  and  _186
REMARK   82  A    between atoms: _186  and  _187
REMARK   83  A    between atoms: _190  and  _192
REMARK   84  A    between atoms: _192  and  _193
REMARK   85  A    between atoms: _192  and  _195
REMARK   86  A    between atoms: _195  and  _196
REMARK   87  A    between atoms: _202  and  _204
REMARK   88  A    between atoms: _204  and  _205
REMARK   89  A    between atoms: _207  and  _209
REMARK   90  A    between atoms: _209  and  _210
REMARK   91  A    between atoms: _209  and  _212
REMARK   92  A    between atoms: _212  and  _213
REMARK   93  A    between atoms: _218  and  _219
REMARK   94  A    between atoms: _221  and  _223
REMARK   95  A    between atoms: _223  and  _224
REMARK   96  A    between atoms: _223  and  _226
REMARK   97  A    between atoms: _226  and  _227
REMARK   98  A    between atoms: _227  and  _228
REMARK   99  A    between atoms: _228  and  _229
REMARK  100  A    between atoms: _238  and  _240
REMARK  101  A    between atoms: _240  and  _241
REMARK  102  A    between atoms: _243  and  _245
REMARK  103  A    between atoms: _245  and  _246
REMARK  104  A    between atoms: _248  and  _250
REMARK  105  A    between atoms: _250  and  _251
REMARK  106  A    between atoms: _250  and  _253
REMARK  107  A    between atoms: _253  and  _254
REMARK  108  A    between atoms: _257  and  _259
REMARK  109  A    between atoms: _259  and  _260
REMARK  110  A    between atoms: _259  and  _262
REMARK  111  A    between atoms: _262  and  _263
REMARK  112  A    between atoms: _266  and  _268
REMARK  113  A    between atoms: _268  and  _269
REMARK  114  A    between atoms: _268  and  _271
REMARK  115  A    between atoms: _271  and  _272
REMARK  116  A    between atoms: _275  and  _277
REMARK  117  A    between atoms: _277  and  _278
REMARK  118  A    between atoms: _277  and  _280
REMARK  119  A    between atoms: _280  and  _281
REMARK  120  A    between atoms: _286  and  _287
REMARK  121  A    between atoms: _289  and  _291
REMARK  122  A    between atoms: _291  and  _292
REMARK  123  A    between atoms: _291  and  _294
REMARK  124  A    between atoms: _294  and  _295
REMARK  125  A    between atoms: _297  and  _299
REMARK  126  A    between atoms: _299  and  _300
REMARK  127  A    between atoms: _299  and  _302
REMARK  128  A    between atoms: _306  and  _307
REMARK  129  A    between atoms: _312  and  _314
REMARK  130  A    between atoms: _314  and  _315
REMARK  131  A    between atoms: _318  and  _320
REMARK  132  A    between atoms: _320  and  _321
REMARK  133  A    between atoms: _324  and  _326
REMARK  134  A    between atoms: _326  and  _327
REMARK  135  A    between atoms: _326  and  _329
REMARK  136  A    between atoms: _329  and  _330
REMARK  137  A    between atoms: _330  and  _331
REMARK  138  A    between atoms: _334  and  _336
REMARK  139  A    between atoms: _336  and  _337
REMARK  140  A    between atoms: _336  and  _339
REMARK  141  A    between atoms: _339  and  _340
REMARK  142  A    between atoms: _346  and  _347
REMARK  143  A    between atoms: _352  and  _354
REMARK  144  A    between atoms: _354  and  _355
REMARK  145  A    between atoms: _354  and  _357
REMARK  146  A    between atoms: _360  and  _362
REMARK  147  A    between atoms: _362  and  _363
REMARK  148  A    between atoms: _362  and  _365
REMARK  149  A    between atoms: _365  and  _366
REMARK  150  A    between atoms: _368  and  _370
REMARK  151  A    between atoms: _370  and  _371
REMARK  152  A    between atoms: _370  and  _373
REMARK  153  A    between atoms: _376  and  _378
REMARK  154  A    between atoms: _378  and  _379
REMARK  155  A    between atoms: _378  and  _381
REMARK  156  A    between atoms: _384  and  _386
REMARK  157  A    between atoms: _386  and  _387
REMARK  158  A    between atoms: _386  and  _389
REMARK  159  A    between atoms: _389  and  _390
REMARK  160  A    between atoms: _393  and  _395
REMARK  161  A    between atoms: _395  and  _396
REMARK  162  A    between atoms: _395  and  _398
REMARK  163  A    between atoms: _398  and  _399
REMARK  164  A    between atoms: _399  and  _400
REMARK  165  A    between atoms: _405  and  _407
REMARK  166  A    between atoms: _407  and  _408
REMARK  167  A    between atoms: _412  and  _413
REMARK  168  A    between atoms: _418  and  _420
REMARK  169  A    between atoms: _420  and  _421
REMARK  170  A    between atoms: _420  and  _423
REMARK  171  A    between atoms: _423  and  _424
REMARK  172  A    between atoms: _427  and  _429
REMARK  173  A    between atoms: _429  and  _430
REMARK  174  A    between atoms: _429  and  _432
REMARK  175  A    between atoms: _432  and  _433
REMARK  176  A    between atoms: _436  and  _438
REMARK  177  A    between atoms: _438  and  _439
REMARK  178  A    between atoms: _438  and  _441
REMARK  179  A    between atoms: _441  and  _442
REMARK  180  A    between atoms: _445  and  _447
REMARK  181  A    between atoms: _447  and  _448
REMARK  182  A    between atoms: _447  and  _450
REMARK  183  A    between atoms: _450  and  _451
REMARK  184  A    between atoms: _451  and  _452
REMARK  185  A    between atoms: _452  and  _453
REMARK  186  A    between atoms: _463  and  _464
REMARK  187  A    between atoms: _469  and  _471
REMARK  188  A    between atoms: _471  and  _472
REMARK  189  A    between atoms: _471  and  _474
REMARK  190  A    between atoms: _474  and  _475
REMARK  191  A    between atoms: _478  and  _480
REMARK  192  A    between atoms: _480  and  _481
REMARK  193  A    between atoms: _480  and  _483
REMARK  194  A    between atoms: _483  and  _484
REMARK  195  A    between atoms: _487  and  _489
REMARK  196  A    between atoms: _489  and  _490
REMARK  197  A    between atoms: _489  and  _492
REMARK  198  A    between atoms: _492  and  _493
REMARK  199  A    between atoms: _497  and  _498
REMARK  200  A    between atoms: _503  and  _505
REMARK  201  A    between atoms: _505  and  _506
REMARK  202  A    between atoms: _505  and  _508
REMARK  203  A    between atoms: _508  and  _509
REMARK  204  A    between atoms: _512  and  _514
REMARK  205  A    between atoms: _514  and  _515
REMARK  206  A    between atoms: _514  and  _517
REMARK  207  A    between atoms: _517  and  _518
REMARK  208  A    between atoms: _518  and  _519
REMARK  209  A    between atoms: _519  and  _520
REMARK  210  A    between atoms: _529  and  _531
REMARK  211  A    between atoms: _531  and  _532
REMARK  212  A    between atoms: _531  and  _534
REMARK  213  A    between atoms: _537  and  _539
REMARK  214  A    between atoms: _539  and  _540
REMARK  215  A    between atoms: _539  and  _542
REMARK  216  A    between atoms: _542  and  _543
REMARK  217  A    between atoms: _546  and  _548
REMARK  218  A    between atoms: _548  and  _549
REMARK  219  A    between atoms: _548  and  _551
REMARK  220  A    between atoms: _551  and  _552
REMARK  221  A    between atoms: _552  and  _553
REMARK  222  A    between atoms: _558  and  _560
REMARK  223  A    between atoms: _560  and  _561
REMARK  224  A    between atoms: _563  and  _565
REMARK  225  A    between atoms: _565  and  _566
REMARK  226  A    between atoms: _565  and  _568
REMARK  227  A    between atoms: _568  and  _569
REMARK  228  A    between atoms: _572  and  _574
REMARK  229  A    between atoms: _574  and  _575
REMARK  230  A    between atoms: _574  and  _577
REMARK  231  A    between atoms: _577  and  _578
REMARK  232  A    between atoms: _580  and  _582
REMARK  233  A    between atoms: _582  and  _583
REMARK  234  A    between atoms: _582  and  _585
REMARK  235  A    between atoms: _585  and  _586
REMARK  236  A    between atoms: _589  and  _591
REMARK  237  A    between atoms: _591  and  _592
REMARK  238  A    between atoms: _591  and  _594
REMARK  239  A    between atoms: _594  and  _595
REMARK  240  A    between atoms: _595  and  _596
REMARK  241  A    between atoms: _599  and  _601
REMARK  242  A    between atoms: _601  and  _602
REMARK  243  A    between atoms: _601  and  _604
REMARK  244  A    between atoms: _604  and  _605
REMARK  245  A    between atoms: _610  and  _612
REMARK  246  A    between atoms: _612  and  _613
REMARK  247  A    between atoms: _612  and  _615
REMARK  248  A    between atoms: _615  and  _616
REMARK  249  A    between atoms: _619  and  _621
REMARK  250  A    between atoms: _621  and  _622
REMARK  251  A    between atoms: _625  and  _627
REMARK  252  A    between atoms: _627  and  _628
REMARK  253  A    between atoms: _627  and  _630
REMARK  254  A    between atoms: _630  and  _631
REMARK  255  A    between atoms: _637  and  _639
REMARK  256  A    between atoms: _639  and  _640
REMARK  257  A    between atoms: _642  and  _644
REMARK  258  A    between atoms: _644  and  _645
REMARK  259  A    between atoms: _644  and  _647
REMARK  260  A    between atoms: _647  and  _648
REMARK  261  A    between atoms: _650  and  _652
REMARK  262  A    between atoms: _652  and  _653
REMARK                            x       y       z     vdW  Elec       q    Type
REMARK                         _______ _______ _______ _____ _____    ______ ____
ROOT
ATOM      1  O   HOH     1       6.795 -13.783  37.453  0.00  0.00    +0.000 OA
ENDROOT
TORSDOF 0
REMARK  Name = ../refined-set-2016/2gvj/2gvj_pocket.pdb
REMARK  262 active torsions:
REMARK  status: ('A' for Active; 'I' for Inactive)
REMARK    1  A    between atoms: _1  and  _3
REMARK    2  A    between atoms: _3  and  _4
REMARK    3  A    between atoms: _3  and  _6
REMARK    4  A    between atoms: _6  and  _7
REMARK    5  A    between atoms: _10  and  _12
REMARK    6  A    between atoms: _12  and  _13
REMARK    7  A    between atoms: _12  and  _15
REMARK    8  A    between atoms: _15  and  _16
REMARK    9  A    between atoms: _19  and  _21
REMARK   10  A    between atoms: _21  and  _22
REMARK   11  A    between atoms: _21  and  _24
REMARK   12  A    between atoms: _24  and  _25
REMARK   13  A    between atoms: _27  and  _29
REMARK   14  A    between atoms: _29  and  _30
REMARK   15  A    between atoms: _29  and  _32
REMARK   16  A    between atoms: _32  and  _33
REMARK   17  A    between atoms: _38  and  _39
REMARK   18  A    between atoms: _41  and  _43
REMARK   19  A    between atoms: _43  and  _44
REMARK   20  A    between atoms: _43  and  _46
REMARK   21  A    between atoms: _46  and  _47
REMARK   22  A    between atoms: _47  and  _48
REMARK   23  A    between atoms: _48  and  _49
REMARK   24  A    between atoms: _49  and  _50
REMARK   25  A    between atoms: _54  and  _56
REMARK   26  A    between atoms: _56  and  _57
REMARK   27  A    between atoms: _56  and  _59
REMARK   28  A    between atoms: _59  and  _60
REMARK   29  A    between atoms: _65  and  _67
REMARK   30  A    between atoms: _67  and  _68
REMARK   31  A    between atoms: _67  and  _70
REMARK   32  A    between atoms: _70  and  _71
REMARK   33  A    between atoms: _71  and  _72
REMARK   34  A    between atoms: _75  and  _77
REMARK   35  A    between atoms: _77  and  _78
REMARK   36  A    between atoms: _77  and  _80
REMARK   37  A    between atoms: _80  and  _81
REMARK   38  A    between atoms: _84  and  _86
REMARK   39  A    between atoms: _86  and  _87
REMARK   40  A    between atoms: _86  and  _89
REMARK   41  A    between atoms: _89  and  _90
REMARK   42  A    between atoms: _90  and  _91
REMARK   43  A    between atoms: _91  and  _92
REMARK   44  A    between atoms: _101  and  _103
REMARK   45  A    between atoms: _103  and  _104
REMARK   46  A    between atoms: _103  and  _106
REMARK   47  A    between atoms: _106  and  _107
REMARK   48  A    between atoms: _110  and  _112
REMARK   49  A    between atoms: _112  and  _113
REMARK   50  A    between atoms: _112  and  _115
REMARK   51  A    between atoms: _115  and  _116
REMARK   52  A    between atoms: _119  and  _121
REMARK   53  A    between atoms: _121  and  _122
REMARK   54  A    between atoms: _124  and  _126
REMARK   55  A    between atoms: _126  and  _127
REMARK   56  A    between atoms: _126  and  _129
REMARK   57  A    between atoms: _129  and  _130
REMARK   58  A    between atoms: _130  and  _131
REMARK   59  A    between atoms: _134  and  _136
REMARK   60  A    between atoms: _136  and  _137
REMARK   61  A    between atoms: _136  and  _139
REMARK   62  A    between atoms: _139  and  _140
REMARK   63  A    between atoms: _145  and  _146
REMARK   64  A    between atoms: _148  and  _150
REMARK   65  A    between atoms: _150  and  _151
REMARK   66  A    between atoms: _150  and  _153
REMARK   67  A    between atoms: _153  and  _154
REMARK   68  A    between atoms: _154  and  _155
REMARK   69  A    between atoms: _155  and  _156
REMARK   70  A    between atoms: _156  and  _157
REMARK   71  A    between atoms: _161  and  _163
REMARK   72  A    between atoms: _163  and  _164
REMARK   73  A    between atoms: _163  and  _166
REMARK   74  A    between atoms: _166  and  _167
REMARK   75  A    between atoms: _170  and  _172
REMARK   76  A    between atoms: _172  and  _173
REMARK   77  A    between atoms: _172  and  _175
REMARK   78  A    between atoms: _175  and  _176
REMARK   79  A    between atoms: _181  and  _183
REMARK   80  A    between atoms: _183  and  _184
REMARK   81  A    between atoms: _183  and  _186
REMARK   82  A    between atoms: _186  and  _187
REMARK   83  A    between atoms: _190  and  _192
REMARK   84  A    between atoms: _192  and  _193
REMARK   85  A    between atoms: _192  and  _195
REMARK   86  A    between atoms: _195  and  _196
REMARK   87  A    between atoms: _202  and  _204
REMARK   88  A    between atoms: _204  and  _205
REMARK   89  A    between atoms: _207  and  _209
REMARK   90  A    between atoms: _209  and  _210
REMARK   91  A    between atoms: _209  and  _212
REMARK   92  A    between atoms: _212  and  _213
REMARK   93  A    between atoms: _218  and  _219
REMARK   94  A    between atoms: _221  and  _223
REMARK   95  A    between atoms: _223  and  _224
REMARK   96  A    between atoms: _223  and  _226
REMARK   97  A    between atoms: _226  and  _227
REMARK   98  A    between atoms: _227  and  _228
REMARK   99  A    between atoms: _228  and  _229
REMARK  100  A    between atoms: _238  and  _240
REMARK  101  A    between atoms: _240  and  _241
REMARK  102  A    between atoms: _243  and  _245
REMARK  103  A    between atoms: _245  and  _246
REMARK  104  A    between atoms: _248  and  _250
REMARK  105  A    between atoms: _250  and  _251
REMARK  106  A    between atoms: _250  and  _253
REMARK  107  A    between atoms: _253  and  _254
REMARK  108  A    between atoms: _257  and  _259
REMARK  109  A    between atoms: _259  and  _260
REMARK  110  A    between atoms: _259  and  _262
REMARK  111  A    between atoms: _262  and  _263
REMARK  112  A    between atoms: _266  and  _268
REMARK  113  A    between atoms: _268  and  _269
REMARK  114  A    between atoms: _268  and  _271
REMARK  115  A    between atoms: _271  and  _272
REMARK  116  A    between atoms: _275  and  _277
REMARK  117  A    between atoms: _277  and  _278
REMARK  118  A    between atoms: _277  and  _280
REMARK  119  A    between atoms: _280  and  _281
REMARK  120  A    between atoms: _286  and  _287
REMARK  121  A    between atoms: _289  and  _291
REMARK  122  A    between atoms: _291  and  _292
REMARK  123  A    between atoms: _291  and  _294
REMARK  124  A    between atoms: _294  and  _295
REMARK  125  A    between atoms: _297  and  _299
REMARK  126  A    between atoms: _299  and  _300
REMARK  127  A    between atoms: _299  and  _302
REMARK  128  A    between atoms: _306  and  _307
REMARK  129  A    between atoms: _312  and  _314
REMARK  130  A    between atoms: _314  and  _315
REMARK  131  A    between atoms: _318  and  _320
REMARK  132  A    between atoms: _320  and  _321
REMARK  133  A    between atoms: _324  and  _326
REMARK  134  A    between atoms: _326  and  _327
REMARK  135  A    between atoms: _326  and  _329
REMARK  136  A    between atoms: _329  and  _330
REMARK  137  A    between atoms: _330  and  _331
REMARK  138  A    between atoms: _334  and  _336
REMARK  139  A    between atoms: _336  and  _337
REMARK  140  A    between atoms: _336  and  _339
REMARK  141  A    between atoms: _339  and  _340
REMARK  142  A    between atoms: _346  and  _347
REMARK  143  A    between atoms: _352  and  _354
REMARK  144  A    between atoms: _354  and  _355
REMARK  145  A    between atoms: _354  and  _357
REMARK  146  A    between atoms: _360  and  _362
REMARK  147  A    between atoms: _362  and  _363
REMARK  148  A    between atoms: _362  and  _365
REMARK  149  A    between atoms: _365  and  _366
REMARK  150  A    between atoms: _368  and  _370
REMARK  151  A    between atoms: _370  and  _371
REMARK  152  A    between atoms: _370  and  _373
REMARK  153  A    between atoms: _376  and  _378
REMARK  154  A    between atoms: _378  and  _379
REMARK  155  A    between atoms: _378  and  _381
REMARK  156  A    between atoms: _384  and  _386
REMARK  157  A    between atoms: _386  and  _387
REMARK  158  A    between atoms: _386  and  _389
REMARK  159  A    between atoms: _389  and  _390
REMARK  160  A    between atoms: _393  and  _395
REMARK  161  A    between atoms: _395  and  _396
REMARK  162  A    between atoms: _395  and  _398
REMARK  163  A    between atoms: _398  and  _399
REMARK  164  A    between atoms: _399  and  _400
REMARK  165  A    between atoms: _405  and  _407
REMARK  166  A    between atoms: _407  and  _408
REMARK  167  A    between atoms: _412  and  _413
REMARK  168  A    between atoms: _418  and  _420
REMARK  169  A    between atoms: _420  and  _421
REMARK  170  A    between atoms: _420  and  _423
REMARK  171  A    between atoms: _423  and  _424
REMARK  172  A    between atoms: _427  and  _429
REMARK  173  A    between atoms: _429  and  _430
REMARK  174  A    between atoms: _429  and  _432
REMARK  175  A    between atoms: _432  and  _433
REMARK  176  A    between atoms: _436  and  _438
REMARK  177  A    between atoms: _438  and  _439
REMARK  178  A    between atoms: _438  and  _441
REMARK  179  A    between atoms: _441  and  _442
REMARK  180  A    between atoms: _445  and  _447
REMARK  181  A    between atoms: _447  and  _448
REMARK  182  A    between atoms: _447  and  _450
REMARK  183  A    between atoms: _450  and  _451
REMARK  184  A    between atoms: _451  and  _452
REMARK  185  A    between atoms: _452  and  _453
REMARK  186  A    between atoms: _463  and  _464
REMARK  187  A    between atoms: _469  and  _471
REMARK  188  A    between atoms: _471  and  _472
REMARK  189  A    between atoms: _471  and  _474
REMARK  190  A    between atoms: _474  and  _475
REMARK  191  A    between atoms: _478  and  _480
REMARK  192  A    between atoms: _480  and  _481
REMARK  193  A    between atoms: _480  and  _483
REMARK  194  A    between atoms: _483  and  _484
REMARK  195  A    between atoms: _487  and  _489
REMARK  196  A    between atoms: _489  and  _490
REMARK  197  A    between atoms: _489  and  _492
REMARK  198  A    between atoms: _492  and  _493
REMARK  199  A    between atoms: _497  and  _498
REMARK  200  A    between atoms: _503  and  _505
REMARK  201  A    between atoms: _505  and  _506
REMARK  202  A    between atoms: _505  and  _508
REMARK  203  A    between atoms: _508  and  _509
REMARK  204  A    between atoms: _512  and  _514
REMARK  205  A    between atoms: _514  and  _515
REMARK  206  A    between atoms: _514  and  _517
REMARK  207  A    between atoms: _517  and  _518
REMARK  208  A    between atoms: _518  and  _519
REMARK  209  A    between atoms: _519  and  _520
REMARK  210  A    between atoms: _529  and  _531
REMARK  211  A    between atoms: _531  and  _532
REMARK  212  A    between atoms: _531  and  _534
REMARK  213  A    between atoms: _537  and  _539
REMARK  214  A    between atoms: _539  and  _540
REMARK  215  A    between atoms: _539  and  _542
REMARK  216  A    between atoms: _542  and  _543
REMARK  217  A    between atoms: _546  and  _548
REMARK  218  A    between atoms: _548  and  _549
REMARK  219  A    between atoms: _548  and  _551
REMARK  220  A    between atoms: _551  and  _552
REMARK  221  A    between atoms: _552  and  _553
REMARK  222  A    between atoms: _558  and  _560
REMARK  223  A    between atoms: _560  and  _561
REMARK  224  A    between atoms: _563  and  _565
REMARK  225  A    between atoms: _565  and  _566
REMARK  226  A    between atoms: _565  and  _568
REMARK  227  A    between atoms: _568  and  _569
REMARK  228  A    between atoms: _572  and  _574
REMARK  229  A    between atoms: _574  and  _575
REMARK  230  A    between atoms: _574  and  _577
REMARK  231  A    between atoms: _577  and  _578
REMARK  232  A    between atoms: _580  and  _582
REMARK  233  A    between atoms: _582  and  _583
REMARK  234  A    between atoms: _582  and  _585
REMARK  235  A    between atoms: _585  and  _586
REMARK  236  A    between atoms: _589  and  _591
REMARK  237  A    between atoms: _591  and  _592
REMARK  238  A    between atoms: _591  and  _594
REMARK  239  A    between atoms: _594  and  _595
REMARK  240  A    between atoms: _595  and  _596
REMARK  241  A    between atoms: _599  and  _601
REMARK  242  A    between atoms: _601  and  _602
REMARK  243  A    between atoms: _601  and  _604
REMARK  244  A    between atoms: _604  and  _605
REMARK  245  A    between atoms: _610  and  _612
REMARK  246  A    between atoms: _612  and  _613
REMARK  247  A    between atoms: _612  and  _615
REMARK  248  A    between atoms: _615  and  _616
REMARK  249  A    between atoms: _619  and  _621
REMARK  250  A    between atoms: _621  and  _622
REMARK  251  A    between atoms: _625  and  _627
REMARK  252  A    between atoms: _627  and  _628
REMARK  253  A    between atoms: _627  and  _630
REMARK  254  A    between atoms: _630  and  _631
REMARK  255  A    between atoms: _637  and  _639
REMARK  256  A    between atoms: _639  and  _640
REMARK  257  A    between atoms: _642  and  _644
REMARK  258  A    between atoms: _644  and  _645
REMARK  259  A    between atoms: _644  and  _647
REMARK  260  A    between atoms: _647  and  _648
REMARK  261  A    between atoms: _650  and  _652
REMARK  262  A    between atoms: _652  and  _653
REMARK                            x       y       z     vdW  Elec       q    Type
REMARK                         _______ _______ _______ _____ _____    ______ ____
ROOT
ATOM      1  O   HOH     1      13.710  -2.998  55.904  0.00  0.00    +0.000 OA
ENDROOT
TORSDOF 0
