REMARK  Name = ../refined-set-2016/1hvl/1hvl_pocket.pdb
REMARK  228 active torsions:
REMARK  status: ('A' for Active; 'I' for Inactive)
REMARK    1  A    between atoms: _1  and  _3
REMARK    2  A    between atoms: _3  and  _4
REMARK    3  A    between atoms: _3  and  _6
REMARK    4  A    between atoms: _6  and  _7
REMARK    5  A    between atoms: _7  and  _8
REMARK    6  A    between atoms: _8  and  _9
REMARK    7  A    between atoms: _19  and  _20
REMARK    8  A    between atoms: _25  and  _27
REMARK    9  A    between atoms: _27  and  _28
REMARK   10  A    between atoms: _27  and  _30
REMARK   11  A    between atoms: _30  and  _31
REMARK   12  A    between atoms: _34  and  _36
REMARK   13  A    between atoms: _36  and  _37
REMARK   14  A    between atoms: _36  and  _39
REMARK   15  A    between atoms: _39  and  _40
REMARK   16  A    between atoms: _43  and  _45
REMARK   17  A    between atoms: _45  and  _46
REMARK   18  A    between atoms: _45  and  _48
REMARK   19  A    between atoms: _48  and  _49
REMARK   20  A    between atoms: _52  and  _54
REMARK   21  A    between atoms: _54  and  _55
REMARK   22  A    between atoms: _54  and  _57
REMARK   23  A    between atoms: _57  and  _58
REMARK   24  A    between atoms: _61  and  _63
REMARK   25  A    between atoms: _63  and  _64
REMARK   26  A    between atoms: _63  and  _66
REMARK   27  A    between atoms: _66  and  _67
REMARK   28  A    between atoms: _70  and  _72
REMARK   29  A    between atoms: _72  and  _73
REMARK   30  A    between atoms: _75  and  _77
REMARK   31  A    between atoms: _77  and  _78
REMARK   32  A    between atoms: _81  and  _83
REMARK   33  A    between atoms: _83  and  _84
REMARK   34  A    between atoms: _83  and  _86
REMARK   35  A    between atoms: _86  and  _87
REMARK   36  A    between atoms: _90  and  _92
REMARK   37  A    between atoms: _92  and  _93
REMARK   38  A    between atoms: _92  and  _95
REMARK   39  A    between atoms: _95  and  _96
REMARK   40  A    between atoms: _99  and  _101
REMARK   41  A    between atoms: _101  and  _102
REMARK   42  A    between atoms: _101  and  _104
REMARK   43  A    between atoms: _104  and  _105
REMARK   44  A    between atoms: _108  and  _110
REMARK   45  A    between atoms: _110  and  _111
REMARK   46  A    between atoms: _110  and  _113
REMARK   47  A    between atoms: _116  and  _118
REMARK   48  A    between atoms: _118  and  _119
REMARK   49  A    between atoms: _118  and  _121
REMARK   50  A    between atoms: _121  and  _122
REMARK   51  A    between atoms: _122  and  _123
REMARK   52  A    between atoms: _123  and  _124
REMARK   53  A    between atoms: _124  and  _125
REMARK   54  A    between atoms: _129  and  _131
REMARK   55  A    between atoms: _131  and  _132
REMARK   56  A    between atoms: _131  and  _134
REMARK   57  A    between atoms: _134  and  _135
REMARK   58  A    between atoms: _138  and  _140
REMARK   59  A    between atoms: _140  and  _141
REMARK   60  A    between atoms: _143  and  _145
REMARK   61  A    between atoms: _145  and  _146
REMARK   62  A    between atoms: _148  and  _150
REMARK   63  A    between atoms: _150  and  _151
REMARK   64  A    between atoms: _150  and  _153
REMARK   65  A    between atoms: _153  and  _154
REMARK   66  A    between atoms: _157  and  _159
REMARK   67  A    between atoms: _159  and  _160
REMARK   68  A    between atoms: _162  and  _164
REMARK   69  A    between atoms: _164  and  _165
REMARK   70  A    between atoms: _167  and  _169
REMARK   71  A    between atoms: _169  and  _170
REMARK   72  A    between atoms: _169  and  _172
REMARK   73  A    between atoms: _172  and  _173
REMARK   74  A    between atoms: _179  and  _181
REMARK   75  A    between atoms: _181  and  _182
REMARK   76  A    between atoms: _181  and  _184
REMARK   77  A    between atoms: _184  and  _185
REMARK   78  A    between atoms: _188  and  _190
REMARK   79  A    between atoms: _190  and  _191
REMARK   80  A    between atoms: _190  and  _193
REMARK   81  A    between atoms: _193  and  _194
REMARK   82  A    between atoms: _198  and  _199
REMARK   83  A    between atoms: _204  and  _206
REMARK   84  A    between atoms: _206  and  _207
REMARK   85  A    between atoms: _206  and  _209
REMARK   86  A    between atoms: _209  and  _210
REMARK   87  A    between atoms: _214  and  _215
REMARK   88  A    between atoms: _220  and  _222
REMARK   89  A    between atoms: _222  and  _223
REMARK   90  A    between atoms: _222  and  _225
REMARK   91  A    between atoms: _228  and  _230
REMARK   92  A    between atoms: _230  and  _231
REMARK   93  A    between atoms: _230  and  _233
REMARK   94  A    between atoms: _233  and  _234
REMARK   95  A    between atoms: _239  and  _241
REMARK   96  A    between atoms: _241  and  _242
REMARK   97  A    between atoms: _241  and  _244
REMARK   98  A    between atoms: _244  and  _245
REMARK   99  A    between atoms: _248  and  _250
REMARK  100  A    between atoms: _250  and  _251
REMARK  101  A    between atoms: _250  and  _253
REMARK  102  A    between atoms: _253  and  _254
REMARK  103  A    between atoms: _257  and  _259
REMARK  104  A    between atoms: _259  and  _260
REMARK  105  A    between atoms: _262  and  _264
REMARK  106  A    between atoms: _264  and  _265
REMARK  107  A    between atoms: _264  and  _267
REMARK  108  A    between atoms: _267  and  _268
REMARK  109  A    between atoms: _268  and  _269
REMARK  110  A    between atoms: _269  and  _270
REMARK  111  A    between atoms: _279  and  _281
REMARK  112  A    between atoms: _281  and  _282
REMARK  113  A    between atoms: _281  and  _284
REMARK  114  A    between atoms: _284  and  _285
REMARK  115  A    between atoms: _285  and  _286
REMARK  116  A    between atoms: _286  and  _287
REMARK  117  A    between atoms: _297  and  _298
REMARK  118  A    between atoms: _303  and  _305
REMARK  119  A    between atoms: _305  and  _306
REMARK  120  A    between atoms: _305  and  _308
REMARK  121  A    between atoms: _308  and  _309
REMARK  122  A    between atoms: _312  and  _314
REMARK  123  A    between atoms: _314  and  _315
REMARK  124  A    between atoms: _314  and  _317
REMARK  125  A    between atoms: _317  and  _318
REMARK  126  A    between atoms: _321  and  _323
REMARK  127  A    between atoms: _323  and  _324
REMARK  128  A    between atoms: _323  and  _326
REMARK  129  A    between atoms: _326  and  _327
REMARK  130  A    between atoms: _330  and  _332
REMARK  131  A    between atoms: _332  and  _333
REMARK  132  A    between atoms: _332  and  _335
REMARK  133  A    between atoms: _335  and  _336
REMARK  134  A    between atoms: _339  and  _341
REMARK  135  A    between atoms: _341  and  _342
REMARK  136  A    between atoms: _341  and  _344
REMARK  137  A    between atoms: _344  and  _345
REMARK  138  A    between atoms: _348  and  _350
REMARK  139  A    between atoms: _350  and  _351
REMARK  140  A    between atoms: _353  and  _355
REMARK  141  A    between atoms: _355  and  _356
REMARK  142  A    between atoms: _359  and  _361
REMARK  143  A    between atoms: _361  and  _362
REMARK  144  A    between atoms: _361  and  _364
REMARK  145  A    between atoms: _364  and  _365
REMARK  146  A    between atoms: _368  and  _370
REMARK  147  A    between atoms: _370  and  _371
REMARK  148  A    between atoms: _370  and  _373
REMARK  149  A    between atoms: _373  and  _374
REMARK  150  A    between atoms: _377  and  _379
REMARK  151  A    between atoms: _379  and  _380
REMARK  152  A    between atoms: _379  and  _382
REMARK  153  A    between atoms: _382  and  _383
REMARK  154  A    between atoms: _386  and  _388
REMARK  155  A    between atoms: _388  and  _389
REMARK  156  A    between atoms: _388  and  _391
REMARK  157  A    between atoms: _394  and  _396
REMARK  158  A    between atoms: _396  and  _397
REMARK  159  A    between atoms: _396  and  _399
REMARK  160  A    between atoms: _399  and  _400
REMARK  161  A    between atoms: _400  and  _401
REMARK  162  A    between atoms: _401  and  _402
REMARK  163  A    between atoms: _402  and  _403
REMARK  164  A    between atoms: _407  and  _409
REMARK  165  A    between atoms: _409  and  _410
REMARK  166  A    between atoms: _409  and  _412
REMARK  167  A    between atoms: _412  and  _413
REMARK  168  A    between atoms: _413  and  _414
REMARK  169  A    between atoms: _416  and  _418
REMARK  170  A    between atoms: _418  and  _419
REMARK  171  A    between atoms: _418  and  _421
REMARK  172  A    between atoms: _421  and  _422
REMARK  173  A    between atoms: _425  and  _427
REMARK  174  A    between atoms: _427  and  _428
REMARK  175  A    between atoms: _430  and  _432
REMARK  176  A    between atoms: _432  and  _433
REMARK  177  A    between atoms: _435  and  _437
REMARK  178  A    between atoms: _437  and  _438
REMARK  179  A    between atoms: _437  and  _440
REMARK  180  A    between atoms: _440  and  _441
REMARK  181  A    between atoms: _444  and  _446
REMARK  182  A    between atoms: _446  and  _447
REMARK  183  A    between atoms: _449  and  _451
REMARK  184  A    between atoms: _451  and  _452
REMARK  185  A    between atoms: _454  and  _456
REMARK  186  A    between atoms: _456  and  _457
REMARK  187  A    between atoms: _456  and  _459
REMARK  188  A    between atoms: _459  and  _460
REMARK  189  A    between atoms: _466  and  _468
REMARK  190  A    between atoms: _468  and  _469
REMARK  191  A    between atoms: _468  and  _471
REMARK  192  A    between atoms: _471  and  _472
REMARK  193  A    between atoms: _475  and  _477
REMARK  194  A    between atoms: _477  and  _478
REMARK  195  A    between atoms: _477  and  _480
REMARK  196  A    between atoms: _483  and  _485
REMARK  197  A    between atoms: _485  and  _486
REMARK  198  A    between atoms: _485  and  _488
REMARK  199  A    between atoms: _488  and  _489
REMARK  200  A    between atoms: _493  and  _494
REMARK  201  A    between atoms: _499  and  _501
REMARK  202  A    between atoms: _501  and  _502
REMARK  203  A    between atoms: _501  and  _504
REMARK  204  A    between atoms: _504  and  _505
REMARK  205  A    between atoms: _509  and  _510
REMARK  206  A    between atoms: _515  and  _517
REMARK  207  A    between atoms: _517  and  _518
REMARK  208  A    between atoms: _517  and  _520
REMARK  209  A    between atoms: _523  and  _525
REMARK  210  A    between atoms: _525  and  _526
REMARK  211  A    between atoms: _525  and  _528
REMARK  212  A    between atoms: _528  and  _529
REMARK  213  A    between atoms: _534  and  _536
REMARK  214  A    between atoms: _536  and  _537
REMARK  215  A    between atoms: _536  and  _539
REMARK  216  A    between atoms: _539  and  _540
REMARK  217  A    between atoms: _543  and  _545
REMARK  218  A    between atoms: _545  and  _546
REMARK  219  A    between atoms: _545  and  _548
REMARK  220  A    between atoms: _548  and  _549
REMARK  221  A    between atoms: _552  and  _554
REMARK  222  A    between atoms: _554  and  _555
REMARK  223  A    between atoms: _557  and  _559
REMARK  224  A    between atoms: _559  and  _560
REMARK  225  A    between atoms: _559  and  _562
REMARK  226  A    between atoms: _562  and  _563
REMARK  227  A    between atoms: _563  and  _564
REMARK  228  A    between atoms: _564  and  _565
REMARK                            x       y       z     vdW  Elec       q    Type
REMARK                         _______ _______ _______ _____ _____    ______ ____
ROOT
ATOM      1  C   ARG A   1       2.009  -3.534  27.601  0.00  0.00    +0.241 C 
ATOM      2  O   ARG A   1       1.267  -3.955  28.467  0.00  0.00    -0.273 OA
ATOM      3  N   PRO A   2       1.969  -2.291  27.116  0.00  0.00    -0.272 N 
ATOM      4  CA  PRO A   2       0.946  -1.350  27.590  0.00  0.00    +0.152 C 
ATOM      5  CB  PRO A   2       1.589   0.004  27.254  0.00  0.00    +0.031 C 
ATOM      6  CG  PRO A   2       2.388  -0.262  25.992  0.00  0.00    +0.024 C 
ATOM      7  CD  PRO A   2       2.921  -1.683  26.193  0.00  0.00    +0.094 C 
ENDROOT
BRANCH   4   8
ATOM      8  C   PRO A   2      -0.413  -1.596  26.917  0.00  0.00    +0.241 C 
ATOM      9  N   LEU A   3      -0.951  -2.736  27.326  0.00  0.00    -0.298 N 
ATOM     10  H   LEU A   3      -0.405  -3.362  27.951  0.00  0.00    +0.150 HD
ATOM     11  O   PRO A   2      -0.957  -0.865  26.103  0.00  0.00    -0.273 OA
BRANCH   9  12
ATOM     12  CA  LEU A   3      -2.297  -3.130  26.916  0.00  0.00    +0.137 C 
BRANCH  12  13
ATOM     13  C   LEU A   3      -3.360  -2.536  27.773  0.00  0.00    +0.227 C 
ATOM     14  O   LEU A   3      -3.334  -2.652  28.981  0.00  0.00    -0.286 OA
ENDBRANCH  12  13
BRANCH  12  15
ATOM     15  CB  LEU A   3      -2.503  -4.626  27.048  0.00  0.00    +0.028 C 
BRANCH  15  16
ATOM     16  CG  LEU A   3      -1.646  -5.395  26.056  0.00  0.00    +0.002 C 
ATOM     17  CD2 LEU A   3      -1.550  -6.858  26.507  0.00  0.00    +0.000 C 
ATOM     18  CD1 LEU A   3      -2.132  -5.230  24.604  0.00  0.00    +0.000 C 
ENDBRANCH  15  16
ENDBRANCH  12  15
ENDBRANCH   9  12
ENDBRANCH   4   8
BRANCH   1  19
ATOM     19  CA  ARG A   1       3.096  -4.463  27.082  0.00  0.00    +0.145 C 
BRANCH  19  20
ATOM     20  N   ARG A   1       3.830  -5.173  28.151  0.00  0.00    -0.238 NA
ATOM     21  H   ARG A   1       3.932  -6.208  28.135  0.00  0.00    +0.142 HD
ENDBRANCH  19  20
BRANCH  19  22
ATOM     22  CB  ARG A   1       2.473  -5.471  26.146  0.00  0.00    +0.030 C 
BRANCH  22  23
ATOM     23  CG  ARG A   1       3.573  -6.215  25.448  0.00  0.00    +0.045 C 
BRANCH  23  24
ATOM     24  CD  ARG A   1       3.013  -6.985  24.288  0.00  0.00    +0.174 C 
BRANCH  24  25
ATOM     25  NE  ARG A   1       4.056  -7.843  23.705  0.00  0.00    -0.265 N 
ATOM     26  HE  ARG A   1       5.004  -7.465  23.505  0.00  0.00    +0.259 HD
ATOM     27  CZ  ARG A   1       3.757  -9.133  23.435  0.00  0.00    +0.342 C 
ATOM     28  NH2 ARG A   1       2.544  -9.604  23.771  0.00  0.00    -0.292 N 
ATOM     29 HH21 ARG A   1       1.852  -8.978  24.231  0.00  0.00    +0.255 HD
ATOM     30 HH22 ARG A   1       2.297 -10.594  23.571  0.00  0.00    +0.255 HD
ATOM     31  NH1 ARG A   1       4.655  -9.921  22.821  0.00  0.00    -0.292 N 
ATOM     32 HH11 ARG A   1       4.421 -10.913  22.615  0.00  0.00    +0.255 HD
ATOM     33 HH12 ARG A   1       5.584  -9.539  22.552  0.00  0.00    +0.255 HD
ENDBRANCH  24  25
ENDBRANCH  23  24
ENDBRANCH  22  23
ENDBRANCH  19  22
ENDBRANCH   1  19
TORSDOF 11
REMARK  Name = ../refined-set-2016/1hvl/1hvl_pocket.pdb
REMARK  228 active torsions:
REMARK  status: ('A' for Active; 'I' for Inactive)
REMARK    1  A    between atoms: _1  and  _3
REMARK    2  A    between atoms: _3  and  _4
REMARK    3  A    between atoms: _3  and  _6
REMARK    4  A    between atoms: _6  and  _7
REMARK    5  A    between atoms: _7  and  _8
REMARK    6  A    between atoms: _8  and  _9
REMARK    7  A    between atoms: _19  and  _20
REMARK    8  A    between atoms: _25  and  _27
REMARK    9  A    between atoms: _27  and  _28
REMARK   10  A    between atoms: _27  and  _30
REMARK   11  A    between atoms: _30  and  _31
REMARK   12  A    between atoms: _34  and  _36
REMARK   13  A    between atoms: _36  and  _37
REMARK   14  A    between atoms: _36  and  _39
REMARK   15  A    between atoms: _39  and  _40
REMARK   16  A    between atoms: _43  and  _45
REMARK   17  A    between atoms: _45  and  _46
REMARK   18  A    between atoms: _45  and  _48
REMARK   19  A    between atoms: _48  and  _49
REMARK   20  A    between atoms: _52  and  _54
REMARK   21  A    between atoms: _54  and  _55
REMARK   22  A    between atoms: _54  and  _57
REMARK   23  A    between atoms: _57  and  _58
REMARK   24  A    between atoms: _61  and  _63
REMARK   25  A    between atoms: _63  and  _64
REMARK   26  A    between atoms: _63  and  _66
REMARK   27  A    between atoms: _66  and  _67
REMARK   28  A    between atoms: _70  and  _72
REMARK   29  A    between atoms: _72  and  _73
REMARK   30  A    between atoms: _75  and  _77
REMARK   31  A    between atoms: _77  and  _78
REMARK   32  A    between atoms: _81  and  _83
REMARK   33  A    between atoms: _83  and  _84
REMARK   34  A    between atoms: _83  and  _86
REMARK   35  A    between atoms: _86  and  _87
REMARK   36  A    between atoms: _90  and  _92
REMARK   37  A    between atoms: _92  and  _93
REMARK   38  A    between atoms: _92  and  _95
REMARK   39  A    between atoms: _95  and  _96
REMARK   40  A    between atoms: _99  and  _101
REMARK   41  A    between atoms: _101  and  _102
REMARK   42  A    between atoms: _101  and  _104
REMARK   43  A    between atoms: _104  and  _105
REMARK   44  A    between atoms: _108  and  _110
REMARK   45  A    between atoms: _110  and  _111
REMARK   46  A    between atoms: _110  and  _113
REMARK   47  A    between atoms: _116  and  _118
REMARK   48  A    between atoms: _118  and  _119
REMARK   49  A    between atoms: _118  and  _121
REMARK   50  A    between atoms: _121  and  _122
REMARK   51  A    between atoms: _122  and  _123
REMARK   52  A    between atoms: _123  and  _124
REMARK   53  A    between atoms: _124  and  _125
REMARK   54  A    between atoms: _129  and  _131
REMARK   55  A    between atoms: _131  and  _132
REMARK   56  A    between atoms: _131  and  _134
REMARK   57  A    between atoms: _134  and  _135
REMARK   58  A    between atoms: _138  and  _140
REMARK   59  A    between atoms: _140  and  _141
REMARK   60  A    between atoms: _143  and  _145
REMARK   61  A    between atoms: _145  and  _146
REMARK   62  A    between atoms: _148  and  _150
REMARK   63  A    between atoms: _150  and  _151
REMARK   64  A    between atoms: _150  and  _153
REMARK   65  A    between atoms: _153  and  _154
REMARK   66  A    between atoms: _157  and  _159
REMARK   67  A    between atoms: _159  and  _160
REMARK   68  A    between atoms: _162  and  _164
REMARK   69  A    between atoms: _164  and  _165
REMARK   70  A    between atoms: _167  and  _169
REMARK   71  A    between atoms: _169  and  _170
REMARK   72  A    between atoms: _169  and  _172
REMARK   73  A    between atoms: _172  and  _173
REMARK   74  A    between atoms: _179  and  _181
REMARK   75  A    between atoms: _181  and  _182
REMARK   76  A    between atoms: _181  and  _184
REMARK   77  A    between atoms: _184  and  _185
REMARK   78  A    between atoms: _188  and  _190
REMARK   79  A    between atoms: _190  and  _191
REMARK   80  A    between atoms: _190  and  _193
REMARK   81  A    between atoms: _193  and  _194
REMARK   82  A    between atoms: _198  and  _199
REMARK   83  A    between atoms: _204  and  _206
REMARK   84  A    between atoms: _206  and  _207
REMARK   85  A    between atoms: _206  and  _209
REMARK   86  A    between atoms: _209  and  _210
REMARK   87  A    between atoms: _214  and  _215
REMARK   88  A    between atoms: _220  and  _222
REMARK   89  A    between atoms: _222  and  _223
REMARK   90  A    between atoms: _222  and  _225
REMARK   91  A    between atoms: _228  and  _230
REMARK   92  A    between atoms: _230  and  _231
REMARK   93  A    between atoms: _230  and  _233
REMARK   94  A    between atoms: _233  and  _234
REMARK   95  A    between atoms: _239  and  _241
REMARK   96  A    between atoms: _241  and  _242
REMARK   97  A    between atoms: _241  and  _244
REMARK   98  A    between atoms: _244  and  _245
REMARK   99  A    between atoms: _248  and  _250
REMARK  100  A    between atoms: _250  and  _251
REMARK  101  A    between atoms: _250  and  _253
REMARK  102  A    between atoms: _253  and  _254
REMARK  103  A    between atoms: _257  and  _259
REMARK  104  A    between atoms: _259  and  _260
REMARK  105  A    between atoms: _262  and  _264
REMARK  106  A    between atoms: _264  and  _265
REMARK  107  A    between atoms: _264  and  _267
REMARK  108  A    between atoms: _267  and  _268
REMARK  109  A    between atoms: _268  and  _269
REMARK  110  A    between atoms: _269  and  _270
REMARK  111  A    between atoms: _279  and  _281
REMARK  112  A    between atoms: _281  and  _282
REMARK  113  A    between atoms: _281  and  _284
REMARK  114  A    between atoms: _284  and  _285
REMARK  115  A    between atoms: _285  and  _286
REMARK  116  A    between atoms: _286  and  _287
REMARK  117  A    between atoms: _297  and  _298
REMARK  118  A    between atoms: _303  and  _305
REMARK  119  A    between atoms: _305  and  _306
REMARK  120  A    between atoms: _305  and  _308
REMARK  121  A    between atoms: _308  and  _309
REMARK  122  A    between atoms: _312  and  _314
REMARK  123  A    between atoms: _314  and  _315
REMARK  124  A    between atoms: _314  and  _317
REMARK  125  A    between atoms: _317  and  _318
REMARK  126  A    between atoms: _321  and  _323
REMARK  127  A    between atoms: _323  and  _324
REMARK  128  A    between atoms: _323  and  _326
REMARK  129  A    between atoms: _326  and  _327
REMARK  130  A    between atoms: _330  and  _332
REMARK  131  A    between atoms: _332  and  _333
REMARK  132  A    between atoms: _332  and  _335
REMARK  133  A    between atoms: _335  and  _336
REMARK  134  A    between atoms: _339  and  _341
REMARK  135  A    between atoms: _341  and  _342
REMARK  136  A    between atoms: _341  and  _344
REMARK  137  A    between atoms: _344  and  _345
REMARK  138  A    between atoms: _348  and  _350
REMARK  139  A    between atoms: _350  and  _351
REMARK  140  A    between atoms: _353  and  _355
REMARK  141  A    between atoms: _355  and  _356
REMARK  142  A    between atoms: _359  and  _361
REMARK  143  A    between atoms: _361  and  _362
REMARK  144  A    between atoms: _361  and  _364
REMARK  145  A    between atoms: _364  and  _365
REMARK  146  A    between atoms: _368  and  _370
REMARK  147  A    between atoms: _370  and  _371
REMARK  148  A    between atoms: _370  and  _373
REMARK  149  A    between atoms: _373  and  _374
REMARK  150  A    between atoms: _377  and  _379
REMARK  151  A    between atoms: _379  and  _380
REMARK  152  A    between atoms: _379  and  _382
REMARK  153  A    between atoms: _382  and  _383
REMARK  154  A    between atoms: _386  and  _388
REMARK  155  A    between atoms: _388  and  _389
REMARK  156  A    between atoms: _388  and  _391
REMARK  157  A    between atoms: _394  and  _396
REMARK  158  A    between atoms: _396  and  _397
REMARK  159  A    between atoms: _396  and  _399
REMARK  160  A    between atoms: _399  and  _400
REMARK  161  A    between atoms: _400  and  _401
REMARK  162  A    between atoms: _401  and  _402
REMARK  163  A    between atoms: _402  and  _403
REMARK  164  A    between atoms: _407  and  _409
REMARK  165  A    between atoms: _409  and  _410
REMARK  166  A    between atoms: _409  and  _412
REMARK  167  A    between atoms: _412  and  _413
REMARK  168  A    between atoms: _413  and  _414
REMARK  169  A    between atoms: _416  and  _418
REMARK  170  A    between atoms: _418  and  _419
REMARK  171  A    between atoms: _418  and  _421
REMARK  172  A    between atoms: _421  and  _422
REMARK  173  A    between atoms: _425  and  _427
REMARK  174  A    between atoms: _427  and  _428
REMARK  175  A    between atoms: _430  and  _432
REMARK  176  A    between atoms: _432  and  _433
REMARK  177  A    between atoms: _435  and  _437
REMARK  178  A    between atoms: _437  and  _438
REMARK  179  A    between atoms: _437  and  _440
REMARK  180  A    between atoms: _440  and  _441
REMARK  181  A    between atoms: _444  and  _446
REMARK  182  A    between atoms: _446  and  _447
REMARK  183  A    between atoms: _449  and  _451
REMARK  184  A    between atoms: _451  and  _452
REMARK  185  A    between atoms: _454  and  _456
REMARK  186  A    between atoms: _456  and  _457
REMARK  187  A    between atoms: _456  and  _459
REMARK  188  A    between atoms: _459  and  _460
REMARK  189  A    between atoms: _466  and  _468
REMARK  190  A    between atoms: _468  and  _469
REMARK  191  A    between atoms: _468  and  _471
REMARK  192  A    between atoms: _471  and  _472
REMARK  193  A    between atoms: _475  and  _477
REMARK  194  A    between atoms: _477  and  _478
REMARK  195  A    between atoms: _477  and  _480
REMARK  196  A    between atoms: _483  and  _485
REMARK  197  A    between atoms: _485  and  _486
REMARK  198  A    between atoms: _485  and  _488
REMARK  199  A    between atoms: _488  and  _489
REMARK  200  A    between atoms: _493  and  _494
REMARK  201  A    between atoms: _499  and  _501
REMARK  202  A    between atoms: _501  and  _502
REMARK  203  A    between atoms: _501  and  _504
REMARK  204  A    between atoms: _504  and  _505
REMARK  205  A    between atoms: _509  and  _510
REMARK  206  A    between atoms: _515  and  _517
REMARK  207  A    between atoms: _517  and  _518
REMARK  208  A    between atoms: _517  and  _520
REMARK  209  A    between atoms: _523  and  _525
REMARK  210  A    between atoms: _525  and  _526
REMARK  211  A    between atoms: _525  and  _528
REMARK  212  A    between atoms: _528  and  _529
REMARK  213  A    between atoms: _534  and  _536
REMARK  214  A    between atoms: _536  and  _537
REMARK  215  A    between atoms: _536  and  _539
REMARK  216  A    between atoms: _539  and  _540
REMARK  217  A    between atoms: _543  and  _545
REMARK  218  A    between atoms: _545  and  _546
REMARK  219  A    between atoms: _545  and  _548
REMARK  220  A    between atoms: _548  and  _549
REMARK  221  A    between atoms: _552  and  _554
REMARK  222  A    between atoms: _554  and  _555
REMARK  223  A    between atoms: _557  and  _559
REMARK  224  A    between atoms: _559  and  _560
REMARK  225  A    between atoms: _559  and  _562
REMARK  226  A    between atoms: _562  and  _563
REMARK  227  A    between atoms: _563  and  _564
REMARK  228  A    between atoms: _564  and  _565
REMARK                            x       y       z     vdW  Elec       q    Type
REMARK                         _______ _______ _______ _____ _____    ______ ____
ROOT
ATOM      1  C   GLY A   5       4.445   4.145  16.019  0.00  0.00    +0.243 C 
ATOM      2  N   ALA A   6       3.157   3.985  16.295  0.00  0.00    -0.297 N 
ATOM      3  H   ALA A   6       2.824   3.904  17.277  0.00  0.00    +0.150 HD
ATOM      4  O   GLY A   5       4.854   4.136  14.875  0.00  0.00    -0.273 OA
ENDROOT
BRANCH   2   5
ATOM      5  CA  ALA A   6       2.227   3.926  15.178  0.00  0.00    +0.149 C 
ATOM      6  CB  ALA A   6       1.181   2.859  15.472  0.00  0.00    +0.031 C 
BRANCH   5   7
ATOM      7  C   ALA A   6       1.583   5.291  14.893  0.00  0.00    +0.241 C 
ATOM      8  O   ALA A   6       1.080   5.986  15.787  0.00  0.00    -0.273 OA
ATOM      9  N   ASP A   7       1.596   5.674  13.603  0.00  0.00    -0.297 N 
ATOM     10  H   ASP A   7       2.115   5.128  12.886  0.00  0.00    +0.150 HD
BRANCH   9  11
ATOM     11  CA  ASP A   7       0.851   6.893  13.240  0.00  0.00    +0.160 C 
BRANCH  11  12
ATOM     12  C   ASP A   7      -0.662   6.794  13.354  0.00  0.00    +0.241 C 
ATOM     13  O   ASP A   7      -1.384   7.727  13.673  0.00  0.00    -0.273 OA
ATOM     14  N   ASP A   8      -1.103   5.588  13.062  0.00  0.00    -0.297 N 
ATOM     15  H   ASP A   8      -0.404   4.834  12.906  0.00  0.00    +0.150 HD
BRANCH  14  16
ATOM     16  CA  ASP A   8      -2.516   5.251  12.945  0.00  0.00    +0.160 C 
BRANCH  16  17
ATOM     17  C   ASP A   8      -2.969   4.166  13.906  0.00  0.00    +0.241 C 
ATOM     18  O   ASP A   8      -2.202   3.433  14.501  0.00  0.00    -0.273 OA
ATOM     19  N   THR A   9      -4.283   4.084  14.007  0.00  0.00    -0.295 N 
ATOM     20  H   THR A   9      -4.860   4.784  13.499  0.00  0.00    +0.150 HD
BRANCH  19  21
ATOM     21  CA  THR A   9      -4.978   3.054  14.801  0.00  0.00    +0.176 C 
BRANCH  21  22
ATOM     22  C   THR A   9      -5.524   1.968  13.908  0.00  0.00    +0.243 C 
ATOM     23  N   VAL A  10      -5.071   0.760  14.243  0.00  0.00    -0.298 N 
ATOM     24  H   VAL A  10      -4.432   0.698  15.061  0.00  0.00    +0.150 HD
ATOM     25  O   THR A   9      -6.259   2.195  12.959  0.00  0.00    -0.273 OA
BRANCH  23  26
ATOM     26  CA  VAL A  10      -5.405  -0.495  13.545  0.00  0.00    +0.137 C 
BRANCH  26  27
ATOM     27  CB  VAL A  10      -4.159  -1.091  12.855  0.00  0.00    +0.026 C 
ATOM     28  CG2 VAL A  10      -3.456   0.011  12.067  0.00  0.00    +0.002 C 
ATOM     29  CG1 VAL A  10      -4.552  -2.212  11.889  0.00  0.00    +0.002 C 
ENDBRANCH  26  27
BRANCH  26  30
ATOM     30  C   VAL A  10      -6.011  -1.578  14.443  0.00  0.00    +0.227 C 
ATOM     31  O   VAL A  10      -5.392  -2.090  15.353  0.00  0.00    -0.286 OA
ENDBRANCH  26  30
ENDBRANCH  23  26
ENDBRANCH  21  22
BRANCH  21  32
ATOM     32  CB  THR A   9      -6.126   3.693  15.636  0.00  0.00    +0.137 C 
ATOM     33  CG2 THR A   9      -7.013   2.677  16.365  0.00  0.00    +0.034 C 
BRANCH  32  34
ATOM     34  OG1 THR A   9      -5.567   4.656  16.568  0.00  0.00    -0.382 OA
ATOM     35  HG1 THR A   9      -5.091   5.363  16.064  0.00  0.00    +0.210 HD
ENDBRANCH  32  34
ENDBRANCH  21  32
ENDBRANCH  19  21
ENDBRANCH  16  17
BRANCH  16  36
ATOM     36  CB  ASP A   8      -2.783   4.694  11.529  0.00  0.00    +0.143 C 
BRANCH  36  37
ATOM     37  CG  ASP A   8      -2.207   5.591  10.426  0.00  0.00    +0.367 C 
ATOM     38  OD2 ASP A   8      -2.636   6.742  10.328  0.00  0.00    -0.246 OA
ATOM     39  OD1 ASP A   8      -1.319   5.126   9.687  0.00  0.00    -0.246 OA
ENDBRANCH  36  37
ENDBRANCH  16  36
ENDBRANCH  14  16
ENDBRANCH  11  12
BRANCH  11  40
ATOM     40  CB  ASP A   7       1.032   7.234  11.784  0.00  0.00    +0.143 C 
BRANCH  40  41
ATOM     41  CG  ASP A   7       2.370   7.837  11.490  0.00  0.00    +0.367 C 
ATOM     42  OD2 ASP A   7       3.254   7.862  12.331  0.00  0.00    -0.246 OA
ATOM     43  OD1 ASP A   7       2.503   8.310  10.382  0.00  0.00    -0.246 OA
ENDBRANCH  40  41
ENDBRANCH  11  40
ENDBRANCH   9  11
ENDBRANCH   5   7
ENDBRANCH   2   5
BRANCH   1  44
ATOM     44  CA  GLY A   5       5.389   4.314  17.215  0.00  0.00    +0.176 C 
BRANCH  44  46
ATOM     45  C   THR A   4       4.410   5.600  18.944  0.00  0.00    +0.243 C 
ATOM     46  N   GLY A   5       4.796   4.405  18.556  0.00  0.00    -0.295 N 
ATOM     47  H   GLY A   5       4.688   3.569  19.165  0.00  0.00    +0.150 HD
ATOM     48  O   THR A   4       4.626   6.575  18.247  0.00  0.00    -0.273 OA
BRANCH  45  49
ATOM     49  CA  THR A   4       3.667   5.653  20.276  0.00  0.00    +0.176 C 
BRANCH  49  51
ATOM     50  C   ASP A   3       2.081   3.821  20.103  0.00  0.00    +0.241 C 
ATOM     51  N   THR A   4       3.079   4.398  20.784  0.00  0.00    -0.295 N 
ATOM     52  H   THR A   4       3.436   3.967  21.661  0.00  0.00    +0.150 HD
ATOM     53  O   ASP A   3       1.650   4.297  19.076  0.00  0.00    -0.273 OA
BRANCH  50  54
ATOM     54  CA  ASP A   3       1.558   2.512  20.661  0.00  0.00    +0.160 C 
BRANCH  54  57
ATOM     55  C   LEU A   2       0.421   2.122  22.679  0.00  0.00    +0.241 C 
ATOM     56  O   LEU A   2       1.491   1.804  23.190  0.00  0.00    -0.273 OA
ATOM     57  N   ASP A   3       0.349   2.640  21.467  0.00  0.00    -0.297 N 
ATOM     58  H   ASP A   3      -0.510   3.107  21.112  0.00  0.00    +0.150 HD
BRANCH  55  59
ATOM     59  CA  LEU A   2      -0.916   1.881  23.379  0.00  0.00    +0.149 C 
BRANCH  59  61
ATOM     60  C   LEU A   1      -1.646  -0.216  22.529  0.00  0.00    +0.238 C 
ATOM     61  N   LEU A   2      -1.220   0.464  23.595  0.00  0.00    -0.297 N 
ATOM     62  H   LEU A   2      -1.110   0.014  24.526  0.00  0.00    +0.150 HD
ATOM     63  O   LEU A   1      -1.891   0.311  21.460  0.00  0.00    -0.274 OA
BRANCH  60  64
ATOM     64  CA  LEU A   1      -1.830  -1.696  22.697  0.00  0.00    +0.145 C 
BRANCH  64  65
ATOM     65  N   LEU A   1      -3.170  -2.148  22.308  0.00  0.00    -0.238 NA
ATOM     66  H   LEU A   1      -3.377  -2.385  21.317  0.00  0.00    +0.142 HD
ENDBRANCH  64  65
BRANCH  64  67
ATOM     67  CB  LEU A   1      -0.871  -2.457  21.788  0.00  0.00    +0.026 C 
BRANCH  67  68
ATOM     68  CG  LEU A   1       0.643  -2.351  21.956  0.00  0.00    +0.002 C 
ATOM     69  CD2 LEU A   1       1.126  -2.924  23.290  0.00  0.00    +0.000 C 
ATOM     70  CD1 LEU A   1       1.319  -3.117  20.793  0.00  0.00    +0.000 C 
ENDBRANCH  67  68
ENDBRANCH  64  67
ENDBRANCH  60  64
ENDBRANCH  59  61
BRANCH  59  71
ATOM     71  CB  LEU A   2      -0.885   2.611  24.721  0.00  0.00    +0.029 C 
BRANCH  71  72
ATOM     72  CG  LEU A   2      -2.174   2.437  25.496  0.00  0.00    +0.002 C 
ATOM     73  CD2 LEU A   2      -2.007   3.062  26.876  0.00  0.00    +0.000 C 
ATOM     74  CD1 LEU A   2      -3.327   3.092  24.749  0.00  0.00    +0.000 C 
ENDBRANCH  71  72
ENDBRANCH  59  71
ENDBRANCH  55  59
ENDBRANCH  54  57
BRANCH  54  75
ATOM     75  CB  ASP A   3       1.226   1.504  19.547  0.00  0.00    +0.143 C 
BRANCH  75  76
ATOM     76  CG  ASP A   3       2.380   1.101  18.639  0.00  0.00    +0.367 C 
ATOM     77  OD2 ASP A   3       3.495   1.608  18.734  0.00  0.00    -0.246 OA
ATOM     78  OD1 ASP A   3       2.124   0.248  17.807  0.00  0.00    -0.246 OA
ENDBRANCH  75  76
ENDBRANCH  54  75
ENDBRANCH  50  54
ENDBRANCH  49  51
BRANCH  49  79
ATOM     79  CB  THR A   4       4.608   6.241  21.316  0.00  0.00    +0.137 C 
ATOM     80  CG2 THR A   4       3.866   6.463  22.622  0.00  0.00    +0.034 C 
BRANCH  79  81
ATOM     81  OG1 THR A   4       5.701   5.346  21.537  0.00  0.00    -0.382 OA
ATOM     82  HG1 THR A   4       6.192   5.211  20.688  0.00  0.00    +0.210 HD
ENDBRANCH  79  81
ENDBRANCH  49  79
ENDBRANCH  45  49
ENDBRANCH  44  46
ENDBRANCH   1  44
TORSDOF 35
REMARK  Name = ../refined-set-2016/1hvl/1hvl_pocket.pdb
REMARK  228 active torsions:
REMARK  status: ('A' for Active; 'I' for Inactive)
REMARK    1  A    between atoms: _1  and  _3
REMARK    2  A    between atoms: _3  and  _4
REMARK    3  A    between atoms: _3  and  _6
REMARK    4  A    between atoms: _6  and  _7
REMARK    5  A    between atoms: _7  and  _8
REMARK    6  A    between atoms: _8  and  _9
REMARK    7  A    between atoms: _19  and  _20
REMARK    8  A    between atoms: _25  and  _27
REMARK    9  A    between atoms: _27  and  _28
REMARK   10  A    between atoms: _27  and  _30
REMARK   11  A    between atoms: _30  and  _31
REMARK   12  A    between atoms: _34  and  _36
REMARK   13  A    between atoms: _36  and  _37
REMARK   14  A    between atoms: _36  and  _39
REMARK   15  A    between atoms: _39  and  _40
REMARK   16  A    between atoms: _43  and  _45
REMARK   17  A    between atoms: _45  and  _46
REMARK   18  A    between atoms: _45  and  _48
REMARK   19  A    between atoms: _48  and  _49
REMARK   20  A    between atoms: _52  and  _54
REMARK   21  A    between atoms: _54  and  _55
REMARK   22  A    between atoms: _54  and  _57
REMARK   23  A    between atoms: _57  and  _58
REMARK   24  A    between atoms: _61  and  _63
REMARK   25  A    between atoms: _63  and  _64
REMARK   26  A    between atoms: _63  and  _66
REMARK   27  A    between atoms: _66  and  _67
REMARK   28  A    between atoms: _70  and  _72
REMARK   29  A    between atoms: _72  and  _73
REMARK   30  A    between atoms: _75  and  _77
REMARK   31  A    between atoms: _77  and  _78
REMARK   32  A    between atoms: _81  and  _83
REMARK   33  A    between atoms: _83  and  _84
REMARK   34  A    between atoms: _83  and  _86
REMARK   35  A    between atoms: _86  and  _87
REMARK   36  A    between atoms: _90  and  _92
REMARK   37  A    between atoms: _92  and  _93
REMARK   38  A    between atoms: _92  and  _95
REMARK   39  A    between atoms: _95  and  _96
REMARK   40  A    between atoms: _99  and  _101
REMARK   41  A    between atoms: _101  and  _102
REMARK   42  A    between atoms: _101  and  _104
REMARK   43  A    between atoms: _104  and  _105
REMARK   44  A    between atoms: _108  and  _110
REMARK   45  A    between atoms: _110  and  _111
REMARK   46  A    between atoms: _110  and  _113
REMARK   47  A    between atoms: _116  and  _118
REMARK   48  A    between atoms: _118  and  _119
REMARK   49  A    between atoms: _118  and  _121
REMARK   50  A    between atoms: _121  and  _122
REMARK   51  A    between atoms: _122  and  _123
REMARK   52  A    between atoms: _123  and  _124
REMARK   53  A    between atoms: _124  and  _125
REMARK   54  A    between atoms: _129  and  _131
REMARK   55  A    between atoms: _131  and  _132
REMARK   56  A    between atoms: _131  and  _134
REMARK   57  A    between atoms: _134  and  _135
REMARK   58  A    between atoms: _138  and  _140
REMARK   59  A    between atoms: _140  and  _141
REMARK   60  A    between atoms: _143  and  _145
REMARK   61  A    between atoms: _145  and  _146
REMARK   62  A    between atoms: _148  and  _150
REMARK   63  A    between atoms: _150  and  _151
REMARK   64  A    between atoms: _150  and  _153
REMARK   65  A    between atoms: _153  and  _154
REMARK   66  A    between atoms: _157  and  _159
REMARK   67  A    between atoms: _159  and  _160
REMARK   68  A    between atoms: _162  and  _164
REMARK   69  A    between atoms: _164  and  _165
REMARK   70  A    between atoms: _167  and  _169
REMARK   71  A    between atoms: _169  and  _170
REMARK   72  A    between atoms: _169  and  _172
REMARK   73  A    between atoms: _172  and  _173
REMARK   74  A    between atoms: _179  and  _181
REMARK   75  A    between atoms: _181  and  _182
REMARK   76  A    between atoms: _181  and  _184
REMARK   77  A    between atoms: _184  and  _185
REMARK   78  A    between atoms: _188  and  _190
REMARK   79  A    between atoms: _190  and  _191
REMARK   80  A    between atoms: _190  and  _193
REMARK   81  A    between atoms: _193  and  _194
REMARK   82  A    between atoms: _198  and  _199
REMARK   83  A    between atoms: _204  and  _206
REMARK   84  A    between atoms: _206  and  _207
REMARK   85  A    between atoms: _206  and  _209
REMARK   86  A    between atoms: _209  and  _210
REMARK   87  A    between atoms: _214  and  _215
REMARK   88  A    between atoms: _220  and  _222
REMARK   89  A    between atoms: _222  and  _223
REMARK   90  A    between atoms: _222  and  _225
REMARK   91  A    between atoms: _228  and  _230
REMARK   92  A    between atoms: _230  and  _231
REMARK   93  A    between atoms: _230  and  _233
REMARK   94  A    between atoms: _233  and  _234
REMARK   95  A    between atoms: _239  and  _241
REMARK   96  A    between atoms: _241  and  _242
REMARK   97  A    between atoms: _241  and  _244
REMARK   98  A    between atoms: _244  and  _245
REMARK   99  A    between atoms: _248  and  _250
REMARK  100  A    between atoms: _250  and  _251
REMARK  101  A    between atoms: _250  and  _253
REMARK  102  A    between atoms: _253  and  _254
REMARK  103  A    between atoms: _257  and  _259
REMARK  104  A    between atoms: _259  and  _260
REMARK  105  A    between atoms: _262  and  _264
REMARK  106  A    between atoms: _264  and  _265
REMARK  107  A    between atoms: _264  and  _267
REMARK  108  A    between atoms: _267  and  _268
REMARK  109  A    between atoms: _268  and  _269
REMARK  110  A    between atoms: _269  and  _270
REMARK  111  A    between atoms: _279  and  _281
REMARK  112  A    between atoms: _281  and  _282
REMARK  113  A    between atoms: _281  and  _284
REMARK  114  A    between atoms: _284  and  _285
REMARK  115  A    between atoms: _285  and  _286
REMARK  116  A    between atoms: _286  and  _287
REMARK  117  A    between atoms: _297  and  _298
REMARK  118  A    between atoms: _303  and  _305
REMARK  119  A    between atoms: _305  and  _306
REMARK  120  A    between atoms: _305  and  _308
REMARK  121  A    between atoms: _308  and  _309
REMARK  122  A    between atoms: _312  and  _314
REMARK  123  A    between atoms: _314  and  _315
REMARK  124  A    between atoms: _314  and  _317
REMARK  125  A    between atoms: _317  and  _318
REMARK  126  A    between atoms: _321  and  _323
REMARK  127  A    between atoms: _323  and  _324
REMARK  128  A    between atoms: _323  and  _326
REMARK  129  A    between atoms: _326  and  _327
REMARK  130  A    between atoms: _330  and  _332
REMARK  131  A    between atoms: _332  and  _333
REMARK  132  A    between atoms: _332  and  _335
REMARK  133  A    between atoms: _335  and  _336
REMARK  134  A    between atoms: _339  and  _341
REMARK  135  A    between atoms: _341  and  _342
REMARK  136  A    between atoms: _341  and  _344
REMARK  137  A    between atoms: _344  and  _345
REMARK  138  A    between atoms: _348  and  _350
REMARK  139  A    between atoms: _350  and  _351
REMARK  140  A    between atoms: _353  and  _355
REMARK  141  A    between atoms: _355  and  _356
REMARK  142  A    between atoms: _359  and  _361
REMARK  143  A    between atoms: _361  and  _362
REMARK  144  A    between atoms: _361  and  _364
REMARK  145  A    between atoms: _364  and  _365
REMARK  146  A    between atoms: _368  and  _370
REMARK  147  A    between atoms: _370  and  _371
REMARK  148  A    between atoms: _370  and  _373
REMARK  149  A    between atoms: _373  and  _374
REMARK  150  A    between atoms: _377  and  _379
REMARK  151  A    between atoms: _379  and  _380
REMARK  152  A    between atoms: _379  and  _382
REMARK  153  A    between atoms: _382  and  _383
REMARK  154  A    between atoms: _386  and  _388
REMARK  155  A    between atoms: _388  and  _389
REMARK  156  A    between atoms: _388  and  _391
REMARK  157  A    between atoms: _394  and  _396
REMARK  158  A    between atoms: _396  and  _397
REMARK  159  A    between atoms: _396  and  _399
REMARK  160  A    between atoms: _399  and  _400
REMARK  161  A    between atoms: _400  and  _401
REMARK  162  A    between atoms: _401  and  _402
REMARK  163  A    between atoms: _402  and  _403
REMARK  164  A    between atoms: _407  and  _409
REMARK  165  A    between atoms: _409  and  _410
REMARK  166  A    between atoms: _409  and  _412
REMARK  167  A    between atoms: _412  and  _413
REMARK  168  A    between atoms: _413  and  _414
REMARK  169  A    between atoms: _416  and  _418
REMARK  170  A    between atoms: _418  and  _419
REMARK  171  A    between atoms: _418  and  _421
REMARK  172  A    between atoms: _421  and  _422
REMARK  173  A    between atoms: _425  and  _427
REMARK  174  A    between atoms: _427  and  _428
REMARK  175  A    between atoms: _430  and  _432
REMARK  176  A    between atoms: _432  and  _433
REMARK  177  A    between atoms: _435  and  _437
REMARK  178  A    between atoms: _437  and  _438
REMARK  179  A    between atoms: _437  and  _440
REMARK  180  A    between atoms: _440  and  _441
REMARK  181  A    between atoms: _444  and  _446
REMARK  182  A    between atoms: _446  and  _447
REMARK  183  A    between atoms: _449  and  _451
REMARK  184  A    between atoms: _451  and  _452
REMARK  185  A    between atoms: _454  and  _456
REMARK  186  A    between atoms: _456  and  _457
REMARK  187  A    between atoms: _456  and  _459
REMARK  188  A    between atoms: _459  and  _460
REMARK  189  A    between atoms: _466  and  _468
REMARK  190  A    between atoms: _468  and  _469
REMARK  191  A    between atoms: _468  and  _471
REMARK  192  A    between atoms: _471  and  _472
REMARK  193  A    between atoms: _475  and  _477
REMARK  194  A    between atoms: _477  and  _478
REMARK  195  A    between atoms: _477  and  _480
REMARK  196  A    between atoms: _483  and  _485
REMARK  197  A    between atoms: _485  and  _486
REMARK  198  A    between atoms: _485  and  _488
REMARK  199  A    between atoms: _488  and  _489
REMARK  200  A    between atoms: _493  and  _494
REMARK  201  A    between atoms: _499  and  _501
REMARK  202  A    between atoms: _501  and  _502
REMARK  203  A    between atoms: _501  and  _504
REMARK  204  A    between atoms: _504  and  _505
REMARK  205  A    between atoms: _509  and  _510
REMARK  206  A    between atoms: _515  and  _517
REMARK  207  A    between atoms: _517  and  _518
REMARK  208  A    between atoms: _517  and  _520
REMARK  209  A    between atoms: _523  and  _525
REMARK  210  A    between atoms: _525  and  _526
REMARK  211  A    between atoms: _525  and  _528
REMARK  212  A    between atoms: _528  and  _529
REMARK  213  A    between atoms: _534  and  _536
REMARK  214  A    between atoms: _536  and  _537
REMARK  215  A    between atoms: _536  and  _539
REMARK  216  A    between atoms: _539  and  _540
REMARK  217  A    between atoms: _543  and  _545
REMARK  218  A    between atoms: _545  and  _546
REMARK  219  A    between atoms: _545  and  _548
REMARK  220  A    between atoms: _548  and  _549
REMARK  221  A    between atoms: _552  and  _554
REMARK  222  A    between atoms: _554  and  _555
REMARK  223  A    between atoms: _557  and  _559
REMARK  224  A    between atoms: _559  and  _560
REMARK  225  A    between atoms: _559  and  _562
REMARK  226  A    between atoms: _562  and  _563
REMARK  227  A    between atoms: _563  and  _564
REMARK  228  A    between atoms: _564  and  _565
REMARK                            x       y       z     vdW  Elec       q    Type
REMARK                         _______ _______ _______ _____ _____    ______ ____
ROOT
ATOM      1  CG  LYS A   1      -5.789   3.438   3.760  0.00  0.00    -0.000 C 
ENDROOT
BRANCH   1   2
ATOM      2  CB  LYS A   1      -6.880   2.419   3.666  0.00  0.00    +0.025 C 
BRANCH   2   3
ATOM      3  CA  LYS A   1      -6.780   1.612   2.386  0.00  0.00    +0.133 C 
BRANCH   3   4
ATOM      4  N   LYS A   1      -8.046   0.918   2.183  0.00  0.00    -0.239 NA
ATOM      5  H   LYS A   1      -8.222   0.036   2.704  0.00  0.00    +0.142 HD
ENDBRANCH   3   4
BRANCH   3   6
ATOM      6  C   LYS A   1      -5.625   0.636   2.498  0.00  0.00    +0.224 C 
ATOM      7  O   LYS A   1      -5.791  -0.547   2.785  0.00  0.00    -0.287 OA
ENDBRANCH   3   6
ENDBRANCH   2   3
ENDBRANCH   1   2
BRANCH   1   8
ATOM      8  CD  LYS A   1      -5.516   3.893   5.172  0.00  0.00    -0.024 C 
BRANCH   8   9
ATOM      9  CE  LYS A   1      -4.243   4.745   5.101  0.00  0.00    -0.086 C 
BRANCH   9  10
ATOM     10  NZ  LYS A   1      -4.092   5.615   6.279  0.00  0.00    +0.380 N 
ATOM     11  HZ1 LYS A   1      -4.043   5.029   7.137  0.00  0.00    -0.089 HD
ATOM     12  HZ2 LYS A   1      -4.908   6.256   6.342  0.00  0.00    -0.089 HD
ATOM     13  HZ3 LYS A   1      -3.218   6.172   6.187  0.00  0.00    -0.089 HD
ENDBRANCH   9  10
ENDBRANCH   8   9
ENDBRANCH   1   8
TORSDOF 7
REMARK  Name = ../refined-set-2016/1hvl/1hvl_pocket.pdb
REMARK  228 active torsions:
REMARK  status: ('A' for Active; 'I' for Inactive)
REMARK    1  A    between atoms: _1  and  _3
REMARK    2  A    between atoms: _3  and  _4
REMARK    3  A    between atoms: _3  and  _6
REMARK    4  A    between atoms: _6  and  _7
REMARK    5  A    between atoms: _7  and  _8
REMARK    6  A    between atoms: _8  and  _9
REMARK    7  A    between atoms: _19  and  _20
REMARK    8  A    between atoms: _25  and  _27
REMARK    9  A    between atoms: _27  and  _28
REMARK   10  A    between atoms: _27  and  _30
REMARK   11  A    between atoms: _30  and  _31
REMARK   12  A    between atoms: _34  and  _36
REMARK   13  A    between atoms: _36  and  _37
REMARK   14  A    between atoms: _36  and  _39
REMARK   15  A    between atoms: _39  and  _40
REMARK   16  A    between atoms: _43  and  _45
REMARK   17  A    between atoms: _45  and  _46
REMARK   18  A    between atoms: _45  and  _48
REMARK   19  A    between atoms: _48  and  _49
REMARK   20  A    between atoms: _52  and  _54
REMARK   21  A    between atoms: _54  and  _55
REMARK   22  A    between atoms: _54  and  _57
REMARK   23  A    between atoms: _57  and  _58
REMARK   24  A    between atoms: _61  and  _63
REMARK   25  A    between atoms: _63  and  _64
REMARK   26  A    between atoms: _63  and  _66
REMARK   27  A    between atoms: _66  and  _67
REMARK   28  A    between atoms: _70  and  _72
REMARK   29  A    between atoms: _72  and  _73
REMARK   30  A    between atoms: _75  and  _77
REMARK   31  A    between atoms: _77  and  _78
REMARK   32  A    between atoms: _81  and  _83
REMARK   33  A    between atoms: _83  and  _84
REMARK   34  A    between atoms: _83  and  _86
REMARK   35  A    between atoms: _86  and  _87
REMARK   36  A    between atoms: _90  and  _92
REMARK   37  A    between atoms: _92  and  _93
REMARK   38  A    between atoms: _92  and  _95
REMARK   39  A    between atoms: _95  and  _96
REMARK   40  A    between atoms: _99  and  _101
REMARK   41  A    between atoms: _101  and  _102
REMARK   42  A    between atoms: _101  and  _104
REMARK   43  A    between atoms: _104  and  _105
REMARK   44  A    between atoms: _108  and  _110
REMARK   45  A    between atoms: _110  and  _111
REMARK   46  A    between atoms: _110  and  _113
REMARK   47  A    between atoms: _116  and  _118
REMARK   48  A    between atoms: _118  and  _119
REMARK   49  A    between atoms: _118  and  _121
REMARK   50  A    between atoms: _121  and  _122
REMARK   51  A    between atoms: _122  and  _123
REMARK   52  A    between atoms: _123  and  _124
REMARK   53  A    between atoms: _124  and  _125
REMARK   54  A    between atoms: _129  and  _131
REMARK   55  A    between atoms: _131  and  _132
REMARK   56  A    between atoms: _131  and  _134
REMARK   57  A    between atoms: _134  and  _135
REMARK   58  A    between atoms: _138  and  _140
REMARK   59  A    between atoms: _140  and  _141
REMARK   60  A    between atoms: _143  and  _145
REMARK   61  A    between atoms: _145  and  _146
REMARK   62  A    between atoms: _148  and  _150
REMARK   63  A    between atoms: _150  and  _151
REMARK   64  A    between atoms: _150  and  _153
REMARK   65  A    between atoms: _153  and  _154
REMARK   66  A    between atoms: _157  and  _159
REMARK   67  A    between atoms: _159  and  _160
REMARK   68  A    between atoms: _162  and  _164
REMARK   69  A    between atoms: _164  and  _165
REMARK   70  A    between atoms: _167  and  _169
REMARK   71  A    between atoms: _169  and  _170
REMARK   72  A    between atoms: _169  and  _172
REMARK   73  A    between atoms: _172  and  _173
REMARK   74  A    between atoms: _179  and  _181
REMARK   75  A    between atoms: _181  and  _182
REMARK   76  A    between atoms: _181  and  _184
REMARK   77  A    between atoms: _184  and  _185
REMARK   78  A    between atoms: _188  and  _190
REMARK   79  A    between atoms: _190  and  _191
REMARK   80  A    between atoms: _190  and  _193
REMARK   81  A    between atoms: _193  and  _194
REMARK   82  A    between atoms: _198  and  _199
REMARK   83  A    between atoms: _204  and  _206
REMARK   84  A    between atoms: _206  and  _207
REMARK   85  A    between atoms: _206  and  _209
REMARK   86  A    between atoms: _209  and  _210
REMARK   87  A    between atoms: _214  and  _215
REMARK   88  A    between atoms: _220  and  _222
REMARK   89  A    between atoms: _222  and  _223
REMARK   90  A    between atoms: _222  and  _225
REMARK   91  A    between atoms: _228  and  _230
REMARK   92  A    between atoms: _230  and  _231
REMARK   93  A    between atoms: _230  and  _233
REMARK   94  A    between atoms: _233  and  _234
REMARK   95  A    between atoms: _239  and  _241
REMARK   96  A    between atoms: _241  and  _242
REMARK   97  A    between atoms: _241  and  _244
REMARK   98  A    between atoms: _244  and  _245
REMARK   99  A    between atoms: _248  and  _250
REMARK  100  A    between atoms: _250  and  _251
REMARK  101  A    between atoms: _250  and  _253
REMARK  102  A    between atoms: _253  and  _254
REMARK  103  A    between atoms: _257  and  _259
REMARK  104  A    between atoms: _259  and  _260
REMARK  105  A    between atoms: _262  and  _264
REMARK  106  A    between atoms: _264  and  _265
REMARK  107  A    between atoms: _264  and  _267
REMARK  108  A    between atoms: _267  and  _268
REMARK  109  A    between atoms: _268  and  _269
REMARK  110  A    between atoms: _269  and  _270
REMARK  111  A    between atoms: _279  and  _281
REMARK  112  A    between atoms: _281  and  _282
REMARK  113  A    between atoms: _281  and  _284
REMARK  114  A    between atoms: _284  and  _285
REMARK  115  A    between atoms: _285  and  _286
REMARK  116  A    between atoms: _286  and  _287
REMARK  117  A    between atoms: _297  and  _298
REMARK  118  A    between atoms: _303  and  _305
REMARK  119  A    between atoms: _305  and  _306
REMARK  120  A    between atoms: _305  and  _308
REMARK  121  A    between atoms: _308  and  _309
REMARK  122  A    between atoms: _312  and  _314
REMARK  123  A    between atoms: _314  and  _315
REMARK  124  A    between atoms: _314  and  _317
REMARK  125  A    between atoms: _317  and  _318
REMARK  126  A    between atoms: _321  and  _323
REMARK  127  A    between atoms: _323  and  _324
REMARK  128  A    between atoms: _323  and  _326
REMARK  129  A    between atoms: _326  and  _327
REMARK  130  A    between atoms: _330  and  _332
REMARK  131  A    between atoms: _332  and  _333
REMARK  132  A    between atoms: _332  and  _335
REMARK  133  A    between atoms: _335  and  _336
REMARK  134  A    between atoms: _339  and  _341
REMARK  135  A    between atoms: _341  and  _342
REMARK  136  A    between atoms: _341  and  _344
REMARK  137  A    between atoms: _344  and  _345
REMARK  138  A    between atoms: _348  and  _350
REMARK  139  A    between atoms: _350  and  _351
REMARK  140  A    between atoms: _353  and  _355
REMARK  141  A    between atoms: _355  and  _356
REMARK  142  A    between atoms: _359  and  _361
REMARK  143  A    between atoms: _361  and  _362
REMARK  144  A    between atoms: _361  and  _364
REMARK  145  A    between atoms: _364  and  _365
REMARK  146  A    between atoms: _368  and  _370
REMARK  147  A    between atoms: _370  and  _371
REMARK  148  A    between atoms: _370  and  _373
REMARK  149  A    between atoms: _373  and  _374
REMARK  150  A    between atoms: _377  and  _379
REMARK  151  A    between atoms: _379  and  _380
REMARK  152  A    between atoms: _379  and  _382
REMARK  153  A    between atoms: _382  and  _383
REMARK  154  A    between atoms: _386  and  _388
REMARK  155  A    between atoms: _388  and  _389
REMARK  156  A    between atoms: _388  and  _391
REMARK  157  A    between atoms: _394  and  _396
REMARK  158  A    between atoms: _396  and  _397
REMARK  159  A    between atoms: _396  and  _399
REMARK  160  A    between atoms: _399  and  _400
REMARK  161  A    between atoms: _400  and  _401
REMARK  162  A    between atoms: _401  and  _402
REMARK  163  A    between atoms: _402  and  _403
REMARK  164  A    between atoms: _407  and  _409
REMARK  165  A    between atoms: _409  and  _410
REMARK  166  A    between atoms: _409  and  _412
REMARK  167  A    between atoms: _412  and  _413
REMARK  168  A    between atoms: _413  and  _414
REMARK  169  A    between atoms: _416  and  _418
REMARK  170  A    between atoms: _418  and  _419
REMARK  171  A    between atoms: _418  and  _421
REMARK  172  A    between atoms: _421  and  _422
REMARK  173  A    between atoms: _425  and  _427
REMARK  174  A    between atoms: _427  and  _428
REMARK  175  A    between atoms: _430  and  _432
REMARK  176  A    between atoms: _432  and  _433
REMARK  177  A    between atoms: _435  and  _437
REMARK  178  A    between atoms: _437  and  _438
REMARK  179  A    between atoms: _437  and  _440
REMARK  180  A    between atoms: _440  and  _441
REMARK  181  A    between atoms: _444  and  _446
REMARK  182  A    between atoms: _446  and  _447
REMARK  183  A    between atoms: _449  and  _451
REMARK  184  A    between atoms: _451  and  _452
REMARK  185  A    between atoms: _454  and  _456
REMARK  186  A    between atoms: _456  and  _457
REMARK  187  A    between atoms: _456  and  _459
REMARK  188  A    between atoms: _459  and  _460
REMARK  189  A    between atoms: _466  and  _468
REMARK  190  A    between atoms: _468  and  _469
REMARK  191  A    between atoms: _468  and  _471
REMARK  192  A    between atoms: _471  and  _472
REMARK  193  A    between atoms: _475  and  _477
REMARK  194  A    between atoms: _477  and  _478
REMARK  195  A    between atoms: _477  and  _480
REMARK  196  A    between atoms: _483  and  _485
REMARK  197  A    between atoms: _485  and  _486
REMARK  198  A    between atoms: _485  and  _488
REMARK  199  A    between atoms: _488  and  _489
REMARK  200  A    between atoms: _493  and  _494
REMARK  201  A    between atoms: _499  and  _501
REMARK  202  A    between atoms: _501  and  _502
REMARK  203  A    between atoms: _501  and  _504
REMARK  204  A    between atoms: _504  and  _505
REMARK  205  A    between atoms: _509  and  _510
REMARK  206  A    between atoms: _515  and  _517
REMARK  207  A    between atoms: _517  and  _518
REMARK  208  A    between atoms: _517  and  _520
REMARK  209  A    between atoms: _523  and  _525
REMARK  210  A    between atoms: _525  and  _526
REMARK  211  A    between atoms: _525  and  _528
REMARK  212  A    between atoms: _528  and  _529
REMARK  213  A    between atoms: _534  and  _536
REMARK  214  A    between atoms: _536  and  _537
REMARK  215  A    between atoms: _536  and  _539
REMARK  216  A    between atoms: _539  and  _540
REMARK  217  A    between atoms: _543  and  _545
REMARK  218  A    between atoms: _545  and  _546
REMARK  219  A    between atoms: _545  and  _548
REMARK  220  A    between atoms: _548  and  _549
REMARK  221  A    between atoms: _552  and  _554
REMARK  222  A    between atoms: _554  and  _555
REMARK  223  A    between atoms: _557  and  _559
REMARK  224  A    between atoms: _559  and  _560
REMARK  225  A    between atoms: _559  and  _562
REMARK  226  A    between atoms: _562  and  _563
REMARK  227  A    between atoms: _563  and  _564
REMARK  228  A    between atoms: _564  and  _565
REMARK                            x       y       z     vdW  Elec       q    Type
REMARK                         _______ _______ _______ _____ _____    ______ ____
ROOT
ATOM      1  C   ILE A   4       7.145  -5.385   8.532  0.00  0.00    +0.241 C 
ATOM      2  O   ILE A   4       6.004  -5.787   8.739  0.00  0.00    -0.273 OA
ATOM      3  N   GLY A   5       7.876  -5.866   7.577  0.00  0.00    -0.295 N 
ATOM      4  H   GLY A   5       8.826  -5.507   7.353  0.00  0.00    +0.150 HD
ENDROOT
BRANCH   3   5
ATOM      5  CA  GLY A   5       7.241  -6.964   6.840  0.00  0.00    +0.176 C 
BRANCH   5   6
ATOM      6  C   GLY A   5       6.447  -6.546   5.608  0.00  0.00    +0.243 C 
ATOM      7  N   GLY A   6       6.004  -5.304   5.599  0.00  0.00    -0.295 N 
ATOM      8  H   GLY A   6       6.205  -4.624   6.360  0.00  0.00    +0.150 HD
ATOM      9  O   GLY A   5       6.211  -7.306   4.689  0.00  0.00    -0.273 OA
BRANCH   7  10
ATOM     10  CA  GLY A   6       5.208  -4.971   4.426  0.00  0.00    +0.176 C 
BRANCH  10  11
ATOM     11  C   GLY A   6       3.923  -4.171   4.613  0.00  0.00    +0.243 C 
ATOM     12  O   GLY A   6       3.731  -3.435   5.570  0.00  0.00    -0.273 OA
ATOM     13  N   PHE A   7       3.077  -4.326   3.590  0.00  0.00    -0.297 N 
ATOM     14  H   PHE A   7       3.353  -4.973   2.824  0.00  0.00    +0.150 HD
BRANCH  13  15
ATOM     15  CA  PHE A   7       1.777  -3.639   3.477  0.00  0.00    +0.153 C 
BRANCH  15  16
ATOM     16  C   PHE A   7       0.613  -4.573   3.677  0.00  0.00    +0.241 C 
ATOM     17  N   ILE A   8      -0.360  -4.077   4.434  0.00  0.00    -0.298 N 
ATOM     18  H   ILE A   8      -0.225  -3.210   4.993  0.00  0.00    +0.150 HD
ATOM     19  O   PHE A   7       0.586  -5.691   3.186  0.00  0.00    -0.273 OA
BRANCH  17  20
ATOM     20  CA  ILE A   8      -1.625  -4.801   4.447  0.00  0.00    +0.137 C 
BRANCH  20  21
ATOM     21  C   ILE A   8      -2.756  -3.940   3.926  0.00  0.00    +0.227 C 
ATOM     22  O   ILE A   8      -2.704  -2.717   3.883  0.00  0.00    -0.286 OA
ENDBRANCH  20  21
BRANCH  20  23
ATOM     23  CB  ILE A   8      -1.971  -5.376   5.832  0.00  0.00    +0.026 C 
ATOM     24  CG2 ILE A   8      -0.903  -6.378   6.247  0.00  0.00    +0.002 C 
BRANCH  23  25
ATOM     25  CG1 ILE A   8      -2.189  -4.372   6.951  0.00  0.00    +0.002 C 
ATOM     26  CD1 ILE A   8      -2.680  -5.039   8.240  0.00  0.00    +0.000 C 
ENDBRANCH  23  25
ENDBRANCH  20  23
ENDBRANCH  17  20
ENDBRANCH  15  16
BRANCH  15  27
ATOM     27  CB  PHE A   7       1.568  -3.053   2.087  0.00  0.00    +0.055 C 
BRANCH  27  28
ATOM     28  CG  PHE A   7       2.398  -1.830   1.921  0.00  0.00    -0.020 A 
ATOM     29  CD2 PHE A   7       1.881  -0.588   2.342  0.00  0.00    -0.004 A 
ATOM     30  CE2 PHE A   7       2.702   0.565   2.283  0.00  0.00    -0.000 A 
ATOM     31  CZ  PHE A   7       4.022   0.460   1.791  0.00  0.00    -0.000 A 
ATOM     32  CE1 PHE A   7       4.510  -0.793   1.363  0.00  0.00    -0.000 A 
ATOM     33  CD1 PHE A   7       3.700  -1.939   1.427  0.00  0.00    -0.004 A 
ENDBRANCH  27  28
ENDBRANCH  15  27
ENDBRANCH  13  15
ENDBRANCH  10  11
ENDBRANCH   7  10
ENDBRANCH   5   6
ENDBRANCH   3   5
BRANCH   1  34
ATOM     34  CA  ILE A   4       7.794  -4.253   9.297  0.00  0.00    +0.149 C 
BRANCH  34  36
ATOM     35  C   GLY A   3       6.237  -2.560   8.493  0.00  0.00    +0.243 C 
ATOM     36  N   ILE A   4       6.786  -3.198   9.526  0.00  0.00    -0.297 N 
ATOM     37  H   ILE A   4       6.504  -2.952  10.496  0.00  0.00    +0.150 HD
ATOM     38  O   GLY A   3       6.681  -2.686   7.364  0.00  0.00    -0.273 OA
BRANCH  35  39
ATOM     39  CA  GLY A   3       4.983  -1.732   8.752  0.00  0.00    +0.176 C 
BRANCH  39  42
ATOM     40  C   GLY A   2       3.258  -0.639   7.484  0.00  0.00    +0.243 C 
ATOM     41  O   GLY A   2       3.024   0.168   8.375  0.00  0.00    -0.273 OA
ATOM     42  N   GLY A   3       4.122  -1.617   7.568  0.00  0.00    -0.295 N 
ATOM     43  H   GLY A   3       4.199  -2.312   6.798  0.00  0.00    +0.150 HD
BRANCH  40  44
ATOM     44  CA  GLY A   2       2.600  -0.621   6.124  0.00  0.00    +0.176 C 
BRANCH  44  46
ATOM     45  C   ILE A   1       0.312  -0.372   5.645  0.00  0.00    +0.238 C 
ATOM     46  N   GLY A   2       1.425   0.210   5.984  0.00  0.00    -0.296 N 
ATOM     47  H   GLY A   2       1.468   1.236   6.148  0.00  0.00    +0.150 HD
ATOM     48  O   ILE A   1       0.196  -1.569   5.451  0.00  0.00    -0.274 OA
BRANCH  45  49
ATOM     49  CA  ILE A   1      -0.829   0.589   5.482  0.00  0.00    +0.145 C 
BRANCH  49  50
ATOM     50  N   ILE A   1      -1.816   0.100   4.507  0.00  0.00    -0.238 NA
ATOM     51  H   ILE A   1      -2.093  -0.902   4.483  0.00  0.00    +0.142 HD
ENDBRANCH  49  50
BRANCH  49  52
ATOM     52  CB  ILE A   1      -1.423   0.861   6.879  0.00  0.00    +0.025 C 
ATOM     53  CG2 ILE A   1      -2.186   2.194   6.932  0.00  0.00    +0.002 C 
BRANCH  52  54
ATOM     54  CG1 ILE A   1      -2.302  -0.298   7.357  0.00  0.00    +0.002 C 
ATOM     55  CD1 ILE A   1      -1.613  -1.224   8.333  0.00  0.00    +0.000 C 
ENDBRANCH  52  54
ENDBRANCH  49  52
ENDBRANCH  45  49
ENDBRANCH  44  46
ENDBRANCH  40  44
ENDBRANCH  39  42
ENDBRANCH  35  39
ENDBRANCH  34  36
BRANCH  34  56
ATOM     56  CB  ILE A   4       8.280  -4.807  10.645  0.00  0.00    +0.027 C 
ATOM     57  CG2 ILE A   4       8.940  -6.183  10.569  0.00  0.00    +0.002 C 
BRANCH  56  58
ATOM     58  CG1 ILE A   4       9.215  -3.860  11.399  0.00  0.00    +0.002 C 
ATOM     59  CD1 ILE A   4      10.523  -3.497  10.709  0.00  0.00    +0.000 C 
ENDBRANCH  56  58
ENDBRANCH  34  56
ENDBRANCH   1  34
TORSDOF 24
REMARK  Name = ../refined-set-2016/1hvl/1hvl_pocket.pdb
REMARK  228 active torsions:
REMARK  status: ('A' for Active; 'I' for Inactive)
REMARK    1  A    between atoms: _1  and  _3
REMARK    2  A    between atoms: _3  and  _4
REMARK    3  A    between atoms: _3  and  _6
REMARK    4  A    between atoms: _6  and  _7
REMARK    5  A    between atoms: _7  and  _8
REMARK    6  A    between atoms: _8  and  _9
REMARK    7  A    between atoms: _19  and  _20
REMARK    8  A    between atoms: _25  and  _27
REMARK    9  A    between atoms: _27  and  _28
REMARK   10  A    between atoms: _27  and  _30
REMARK   11  A    between atoms: _30  and  _31
REMARK   12  A    between atoms: _34  and  _36
REMARK   13  A    between atoms: _36  and  _37
REMARK   14  A    between atoms: _36  and  _39
REMARK   15  A    between atoms: _39  and  _40
REMARK   16  A    between atoms: _43  and  _45
REMARK   17  A    between atoms: _45  and  _46
REMARK   18  A    between atoms: _45  and  _48
REMARK   19  A    between atoms: _48  and  _49
REMARK   20  A    between atoms: _52  and  _54
REMARK   21  A    between atoms: _54  and  _55
REMARK   22  A    between atoms: _54  and  _57
REMARK   23  A    between atoms: _57  and  _58
REMARK   24  A    between atoms: _61  and  _63
REMARK   25  A    between atoms: _63  and  _64
REMARK   26  A    between atoms: _63  and  _66
REMARK   27  A    between atoms: _66  and  _67
REMARK   28  A    between atoms: _70  and  _72
REMARK   29  A    between atoms: _72  and  _73
REMARK   30  A    between atoms: _75  and  _77
REMARK   31  A    between atoms: _77  and  _78
REMARK   32  A    between atoms: _81  and  _83
REMARK   33  A    between atoms: _83  and  _84
REMARK   34  A    between atoms: _83  and  _86
REMARK   35  A    between atoms: _86  and  _87
REMARK   36  A    between atoms: _90  and  _92
REMARK   37  A    between atoms: _92  and  _93
REMARK   38  A    between atoms: _92  and  _95
REMARK   39  A    between atoms: _95  and  _96
REMARK   40  A    between atoms: _99  and  _101
REMARK   41  A    between atoms: _101  and  _102
REMARK   42  A    between atoms: _101  and  _104
REMARK   43  A    between atoms: _104  and  _105
REMARK   44  A    between atoms: _108  and  _110
REMARK   45  A    between atoms: _110  and  _111
REMARK   46  A    between atoms: _110  and  _113
REMARK   47  A    between atoms: _116  and  _118
REMARK   48  A    between atoms: _118  and  _119
REMARK   49  A    between atoms: _118  and  _121
REMARK   50  A    between atoms: _121  and  _122
REMARK   51  A    between atoms: _122  and  _123
REMARK   52  A    between atoms: _123  and  _124
REMARK   53  A    between atoms: _124  and  _125
REMARK   54  A    between atoms: _129  and  _131
REMARK   55  A    between atoms: _131  and  _132
REMARK   56  A    between atoms: _131  and  _134
REMARK   57  A    between atoms: _134  and  _135
REMARK   58  A    between atoms: _138  and  _140
REMARK   59  A    between atoms: _140  and  _141
REMARK   60  A    between atoms: _143  and  _145
REMARK   61  A    between atoms: _145  and  _146
REMARK   62  A    between atoms: _148  and  _150
REMARK   63  A    between atoms: _150  and  _151
REMARK   64  A    between atoms: _150  and  _153
REMARK   65  A    between atoms: _153  and  _154
REMARK   66  A    between atoms: _157  and  _159
REMARK   67  A    between atoms: _159  and  _160
REMARK   68  A    between atoms: _162  and  _164
REMARK   69  A    between atoms: _164  and  _165
REMARK   70  A    between atoms: _167  and  _169
REMARK   71  A    between atoms: _169  and  _170
REMARK   72  A    between atoms: _169  and  _172
REMARK   73  A    between atoms: _172  and  _173
REMARK   74  A    between atoms: _179  and  _181
REMARK   75  A    between atoms: _181  and  _182
REMARK   76  A    between atoms: _181  and  _184
REMARK   77  A    between atoms: _184  and  _185
REMARK   78  A    between atoms: _188  and  _190
REMARK   79  A    between atoms: _190  and  _191
REMARK   80  A    between atoms: _190  and  _193
REMARK   81  A    between atoms: _193  and  _194
REMARK   82  A    between atoms: _198  and  _199
REMARK   83  A    between atoms: _204  and  _206
REMARK   84  A    between atoms: _206  and  _207
REMARK   85  A    between atoms: _206  and  _209
REMARK   86  A    between atoms: _209  and  _210
REMARK   87  A    between atoms: _214  and  _215
REMARK   88  A    between atoms: _220  and  _222
REMARK   89  A    between atoms: _222  and  _223
REMARK   90  A    between atoms: _222  and  _225
REMARK   91  A    between atoms: _228  and  _230
REMARK   92  A    between atoms: _230  and  _231
REMARK   93  A    between atoms: _230  and  _233
REMARK   94  A    between atoms: _233  and  _234
REMARK   95  A    between atoms: _239  and  _241
REMARK   96  A    between atoms: _241  and  _242
REMARK   97  A    between atoms: _241  and  _244
REMARK   98  A    between atoms: _244  and  _245
REMARK   99  A    between atoms: _248  and  _250
REMARK  100  A    between atoms: _250  and  _251
REMARK  101  A    between atoms: _250  and  _253
REMARK  102  A    between atoms: _253  and  _254
REMARK  103  A    between atoms: _257  and  _259
REMARK  104  A    between atoms: _259  and  _260
REMARK  105  A    between atoms: _262  and  _264
REMARK  106  A    between atoms: _264  and  _265
REMARK  107  A    between atoms: _264  and  _267
REMARK  108  A    between atoms: _267  and  _268
REMARK  109  A    between atoms: _268  and  _269
REMARK  110  A    between atoms: _269  and  _270
REMARK  111  A    between atoms: _279  and  _281
REMARK  112  A    between atoms: _281  and  _282
REMARK  113  A    between atoms: _281  and  _284
REMARK  114  A    between atoms: _284  and  _285
REMARK  115  A    between atoms: _285  and  _286
REMARK  116  A    between atoms: _286  and  _287
REMARK  117  A    between atoms: _297  and  _298
REMARK  118  A    between atoms: _303  and  _305
REMARK  119  A    between atoms: _305  and  _306
REMARK  120  A    between atoms: _305  and  _308
REMARK  121  A    between atoms: _308  and  _309
REMARK  122  A    between atoms: _312  and  _314
REMARK  123  A    between atoms: _314  and  _315
REMARK  124  A    between atoms: _314  and  _317
REMARK  125  A    between atoms: _317  and  _318
REMARK  126  A    between atoms: _321  and  _323
REMARK  127  A    between atoms: _323  and  _324
REMARK  128  A    between atoms: _323  and  _326
REMARK  129  A    between atoms: _326  and  _327
REMARK  130  A    between atoms: _330  and  _332
REMARK  131  A    between atoms: _332  and  _333
REMARK  132  A    between atoms: _332  and  _335
REMARK  133  A    between atoms: _335  and  _336
REMARK  134  A    between atoms: _339  and  _341
REMARK  135  A    between atoms: _341  and  _342
REMARK  136  A    between atoms: _341  and  _344
REMARK  137  A    between atoms: _344  and  _345
REMARK  138  A    between atoms: _348  and  _350
REMARK  139  A    between atoms: _350  and  _351
REMARK  140  A    between atoms: _353  and  _355
REMARK  141  A    between atoms: _355  and  _356
REMARK  142  A    between atoms: _359  and  _361
REMARK  143  A    between atoms: _361  and  _362
REMARK  144  A    between atoms: _361  and  _364
REMARK  145  A    between atoms: _364  and  _365
REMARK  146  A    between atoms: _368  and  _370
REMARK  147  A    between atoms: _370  and  _371
REMARK  148  A    between atoms: _370  and  _373
REMARK  149  A    between atoms: _373  and  _374
REMARK  150  A    between atoms: _377  and  _379
REMARK  151  A    between atoms: _379  and  _380
REMARK  152  A    between atoms: _379  and  _382
REMARK  153  A    between atoms: _382  and  _383
REMARK  154  A    between atoms: _386  and  _388
REMARK  155  A    between atoms: _388  and  _389
REMARK  156  A    between atoms: _388  and  _391
REMARK  157  A    between atoms: _394  and  _396
REMARK  158  A    between atoms: _396  and  _397
REMARK  159  A    between atoms: _396  and  _399
REMARK  160  A    between atoms: _399  and  _400
REMARK  161  A    between atoms: _400  and  _401
REMARK  162  A    between atoms: _401  and  _402
REMARK  163  A    between atoms: _402  and  _403
REMARK  164  A    between atoms: _407  and  _409
REMARK  165  A    between atoms: _409  and  _410
REMARK  166  A    between atoms: _409  and  _412
REMARK  167  A    between atoms: _412  and  _413
REMARK  168  A    between atoms: _413  and  _414
REMARK  169  A    between atoms: _416  and  _418
REMARK  170  A    between atoms: _418  and  _419
REMARK  171  A    between atoms: _418  and  _421
REMARK  172  A    between atoms: _421  and  _422
REMARK  173  A    between atoms: _425  and  _427
REMARK  174  A    between atoms: _427  and  _428
REMARK  175  A    between atoms: _430  and  _432
REMARK  176  A    between atoms: _432  and  _433
REMARK  177  A    between atoms: _435  and  _437
REMARK  178  A    between atoms: _437  and  _438
REMARK  179  A    between atoms: _437  and  _440
REMARK  180  A    between atoms: _440  and  _441
REMARK  181  A    between atoms: _444  and  _446
REMARK  182  A    between atoms: _446  and  _447
REMARK  183  A    between atoms: _449  and  _451
REMARK  184  A    between atoms: _451  and  _452
REMARK  185  A    between atoms: _454  and  _456
REMARK  186  A    between atoms: _456  and  _457
REMARK  187  A    between atoms: _456  and  _459
REMARK  188  A    between atoms: _459  and  _460
REMARK  189  A    between atoms: _466  and  _468
REMARK  190  A    between atoms: _468  and  _469
REMARK  191  A    between atoms: _468  and  _471
REMARK  192  A    between atoms: _471  and  _472
REMARK  193  A    between atoms: _475  and  _477
REMARK  194  A    between atoms: _477  and  _478
REMARK  195  A    between atoms: _477  and  _480
REMARK  196  A    between atoms: _483  and  _485
REMARK  197  A    between atoms: _485  and  _486
REMARK  198  A    between atoms: _485  and  _488
REMARK  199  A    between atoms: _488  and  _489
REMARK  200  A    between atoms: _493  and  _494
REMARK  201  A    between atoms: _499  and  _501
REMARK  202  A    between atoms: _501  and  _502
REMARK  203  A    between atoms: _501  and  _504
REMARK  204  A    between atoms: _504  and  _505
REMARK  205  A    between atoms: _509  and  _510
REMARK  206  A    between atoms: _515  and  _517
REMARK  207  A    between atoms: _517  and  _518
REMARK  208  A    between atoms: _517  and  _520
REMARK  209  A    between atoms: _523  and  _525
REMARK  210  A    between atoms: _525  and  _526
REMARK  211  A    between atoms: _525  and  _528
REMARK  212  A    between atoms: _528  and  _529
REMARK  213  A    between atoms: _534  and  _536
REMARK  214  A    between atoms: _536  and  _537
REMARK  215  A    between atoms: _536  and  _539
REMARK  216  A    between atoms: _539  and  _540
REMARK  217  A    between atoms: _543  and  _545
REMARK  218  A    between atoms: _545  and  _546
REMARK  219  A    between atoms: _545  and  _548
REMARK  220  A    between atoms: _548  and  _549
REMARK  221  A    between atoms: _552  and  _554
REMARK  222  A    between atoms: _554  and  _555
REMARK  223  A    between atoms: _557  and  _559
REMARK  224  A    between atoms: _559  and  _560
REMARK  225  A    between atoms: _559  and  _562
REMARK  226  A    between atoms: _562  and  _563
REMARK  227  A    between atoms: _563  and  _564
REMARK  228  A    between atoms: _564  and  _565
REMARK                            x       y       z     vdW  Elec       q    Type
REMARK                         _______ _______ _______ _____ _____    ______ ____
ROOT
ATOM      1  CA  LEU A   1      -8.482   1.176  10.408  0.00  0.00    +0.133 C 
ENDROOT
BRANCH   1   2
ATOM      2  N   LEU A   1      -8.645   2.162  11.467  0.00  0.00    -0.239 NA
ATOM      3  H   LEU A   1      -7.896   2.312  12.173  0.00  0.00    +0.142 HD
ENDBRANCH   1   2
BRANCH   1   4
ATOM      4  C   LEU A   1      -8.773  -0.238  10.932  0.00  0.00    +0.224 C 
ATOM      5  O   LEU A   1      -8.335  -0.631  11.992  0.00  0.00    -0.287 OA
ENDBRANCH   1   4
BRANCH   1   6
ATOM      6  CB  LEU A   1      -7.036   1.243   9.880  0.00  0.00    +0.025 C 
BRANCH   6   7
ATOM      7  CG  LEU A   1      -6.530   2.628   9.527  0.00  0.00    +0.002 C 
ATOM      8  CD2 LEU A   1      -5.065   2.537   9.180  0.00  0.00    +0.000 C 
ATOM      9  CD1 LEU A   1      -7.291   3.226   8.357  0.00  0.00    +0.000 C 
ENDBRANCH   6   7
ENDBRANCH   1   6
TORSDOF 4
REMARK  Name = ../refined-set-2016/1hvl/1hvl_pocket.pdb
REMARK  228 active torsions:
REMARK  status: ('A' for Active; 'I' for Inactive)
REMARK    1  A    between atoms: _1  and  _3
REMARK    2  A    between atoms: _3  and  _4
REMARK    3  A    between atoms: _3  and  _6
REMARK    4  A    between atoms: _6  and  _7
REMARK    5  A    between atoms: _7  and  _8
REMARK    6  A    between atoms: _8  and  _9
REMARK    7  A    between atoms: _19  and  _20
REMARK    8  A    between atoms: _25  and  _27
REMARK    9  A    between atoms: _27  and  _28
REMARK   10  A    between atoms: _27  and  _30
REMARK   11  A    between atoms: _30  and  _31
REMARK   12  A    between atoms: _34  and  _36
REMARK   13  A    between atoms: _36  and  _37
REMARK   14  A    between atoms: _36  and  _39
REMARK   15  A    between atoms: _39  and  _40
REMARK   16  A    between atoms: _43  and  _45
REMARK   17  A    between atoms: _45  and  _46
REMARK   18  A    between atoms: _45  and  _48
REMARK   19  A    between atoms: _48  and  _49
REMARK   20  A    between atoms: _52  and  _54
REMARK   21  A    between atoms: _54  and  _55
REMARK   22  A    between atoms: _54  and  _57
REMARK   23  A    between atoms: _57  and  _58
REMARK   24  A    between atoms: _61  and  _63
REMARK   25  A    between atoms: _63  and  _64
REMARK   26  A    between atoms: _63  and  _66
REMARK   27  A    between atoms: _66  and  _67
REMARK   28  A    between atoms: _70  and  _72
REMARK   29  A    between atoms: _72  and  _73
REMARK   30  A    between atoms: _75  and  _77
REMARK   31  A    between atoms: _77  and  _78
REMARK   32  A    between atoms: _81  and  _83
REMARK   33  A    between atoms: _83  and  _84
REMARK   34  A    between atoms: _83  and  _86
REMARK   35  A    between atoms: _86  and  _87
REMARK   36  A    between atoms: _90  and  _92
REMARK   37  A    between atoms: _92  and  _93
REMARK   38  A    between atoms: _92  and  _95
REMARK   39  A    between atoms: _95  and  _96
REMARK   40  A    between atoms: _99  and  _101
REMARK   41  A    between atoms: _101  and  _102
REMARK   42  A    between atoms: _101  and  _104
REMARK   43  A    between atoms: _104  and  _105
REMARK   44  A    between atoms: _108  and  _110
REMARK   45  A    between atoms: _110  and  _111
REMARK   46  A    between atoms: _110  and  _113
REMARK   47  A    between atoms: _116  and  _118
REMARK   48  A    between atoms: _118  and  _119
REMARK   49  A    between atoms: _118  and  _121
REMARK   50  A    between atoms: _121  and  _122
REMARK   51  A    between atoms: _122  and  _123
REMARK   52  A    between atoms: _123  and  _124
REMARK   53  A    between atoms: _124  and  _125
REMARK   54  A    between atoms: _129  and  _131
REMARK   55  A    between atoms: _131  and  _132
REMARK   56  A    between atoms: _131  and  _134
REMARK   57  A    between atoms: _134  and  _135
REMARK   58  A    between atoms: _138  and  _140
REMARK   59  A    between atoms: _140  and  _141
REMARK   60  A    between atoms: _143  and  _145
REMARK   61  A    between atoms: _145  and  _146
REMARK   62  A    between atoms: _148  and  _150
REMARK   63  A    between atoms: _150  and  _151
REMARK   64  A    between atoms: _150  and  _153
REMARK   65  A    between atoms: _153  and  _154
REMARK   66  A    between atoms: _157  and  _159
REMARK   67  A    between atoms: _159  and  _160
REMARK   68  A    between atoms: _162  and  _164
REMARK   69  A    between atoms: _164  and  _165
REMARK   70  A    between atoms: _167  and  _169
REMARK   71  A    between atoms: _169  and  _170
REMARK   72  A    between atoms: _169  and  _172
REMARK   73  A    between atoms: _172  and  _173
REMARK   74  A    between atoms: _179  and  _181
REMARK   75  A    between atoms: _181  and  _182
REMARK   76  A    between atoms: _181  and  _184
REMARK   77  A    between atoms: _184  and  _185
REMARK   78  A    between atoms: _188  and  _190
REMARK   79  A    between atoms: _190  and  _191
REMARK   80  A    between atoms: _190  and  _193
REMARK   81  A    between atoms: _193  and  _194
REMARK   82  A    between atoms: _198  and  _199
REMARK   83  A    between atoms: _204  and  _206
REMARK   84  A    between atoms: _206  and  _207
REMARK   85  A    between atoms: _206  and  _209
REMARK   86  A    between atoms: _209  and  _210
REMARK   87  A    between atoms: _214  and  _215
REMARK   88  A    between atoms: _220  and  _222
REMARK   89  A    between atoms: _222  and  _223
REMARK   90  A    between atoms: _222  and  _225
REMARK   91  A    between atoms: _228  and  _230
REMARK   92  A    between atoms: _230  and  _231
REMARK   93  A    between atoms: _230  and  _233
REMARK   94  A    between atoms: _233  and  _234
REMARK   95  A    between atoms: _239  and  _241
REMARK   96  A    between atoms: _241  and  _242
REMARK   97  A    between atoms: _241  and  _244
REMARK   98  A    between atoms: _244  and  _245
REMARK   99  A    between atoms: _248  and  _250
REMARK  100  A    between atoms: _250  and  _251
REMARK  101  A    between atoms: _250  and  _253
REMARK  102  A    between atoms: _253  and  _254
REMARK  103  A    between atoms: _257  and  _259
REMARK  104  A    between atoms: _259  and  _260
REMARK  105  A    between atoms: _262  and  _264
REMARK  106  A    between atoms: _264  and  _265
REMARK  107  A    between atoms: _264  and  _267
REMARK  108  A    between atoms: _267  and  _268
REMARK  109  A    between atoms: _268  and  _269
REMARK  110  A    between atoms: _269  and  _270
REMARK  111  A    between atoms: _279  and  _281
REMARK  112  A    between atoms: _281  and  _282
REMARK  113  A    between atoms: _281  and  _284
REMARK  114  A    between atoms: _284  and  _285
REMARK  115  A    between atoms: _285  and  _286
REMARK  116  A    between atoms: _286  and  _287
REMARK  117  A    between atoms: _297  and  _298
REMARK  118  A    between atoms: _303  and  _305
REMARK  119  A    between atoms: _305  and  _306
REMARK  120  A    between atoms: _305  and  _308
REMARK  121  A    between atoms: _308  and  _309
REMARK  122  A    between atoms: _312  and  _314
REMARK  123  A    between atoms: _314  and  _315
REMARK  124  A    between atoms: _314  and  _317
REMARK  125  A    between atoms: _317  and  _318
REMARK  126  A    between atoms: _321  and  _323
REMARK  127  A    between atoms: _323  and  _324
REMARK  128  A    between atoms: _323  and  _326
REMARK  129  A    between atoms: _326  and  _327
REMARK  130  A    between atoms: _330  and  _332
REMARK  131  A    between atoms: _332  and  _333
REMARK  132  A    between atoms: _332  and  _335
REMARK  133  A    between atoms: _335  and  _336
REMARK  134  A    between atoms: _339  and  _341
REMARK  135  A    between atoms: _341  and  _342
REMARK  136  A    between atoms: _341  and  _344
REMARK  137  A    between atoms: _344  and  _345
REMARK  138  A    between atoms: _348  and  _350
REMARK  139  A    between atoms: _350  and  _351
REMARK  140  A    between atoms: _353  and  _355
REMARK  141  A    between atoms: _355  and  _356
REMARK  142  A    between atoms: _359  and  _361
REMARK  143  A    between atoms: _361  and  _362
REMARK  144  A    between atoms: _361  and  _364
REMARK  145  A    between atoms: _364  and  _365
REMARK  146  A    between atoms: _368  and  _370
REMARK  147  A    between atoms: _370  and  _371
REMARK  148  A    between atoms: _370  and  _373
REMARK  149  A    between atoms: _373  and  _374
REMARK  150  A    between atoms: _377  and  _379
REMARK  151  A    between atoms: _379  and  _380
REMARK  152  A    between atoms: _379  and  _382
REMARK  153  A    between atoms: _382  and  _383
REMARK  154  A    between atoms: _386  and  _388
REMARK  155  A    between atoms: _388  and  _389
REMARK  156  A    between atoms: _388  and  _391
REMARK  157  A    between atoms: _394  and  _396
REMARK  158  A    between atoms: _396  and  _397
REMARK  159  A    between atoms: _396  and  _399
REMARK  160  A    between atoms: _399  and  _400
REMARK  161  A    between atoms: _400  and  _401
REMARK  162  A    between atoms: _401  and  _402
REMARK  163  A    between atoms: _402  and  _403
REMARK  164  A    between atoms: _407  and  _409
REMARK  165  A    between atoms: _409  and  _410
REMARK  166  A    between atoms: _409  and  _412
REMARK  167  A    between atoms: _412  and  _413
REMARK  168  A    between atoms: _413  and  _414
REMARK  169  A    between atoms: _416  and  _418
REMARK  170  A    between atoms: _418  and  _419
REMARK  171  A    between atoms: _418  and  _421
REMARK  172  A    between atoms: _421  and  _422
REMARK  173  A    between atoms: _425  and  _427
REMARK  174  A    between atoms: _427  and  _428
REMARK  175  A    between atoms: _430  and  _432
REMARK  176  A    between atoms: _432  and  _433
REMARK  177  A    between atoms: _435  and  _437
REMARK  178  A    between atoms: _437  and  _438
REMARK  179  A    between atoms: _437  and  _440
REMARK  180  A    between atoms: _440  and  _441
REMARK  181  A    between atoms: _444  and  _446
REMARK  182  A    between atoms: _446  and  _447
REMARK  183  A    between atoms: _449  and  _451
REMARK  184  A    between atoms: _451  and  _452
REMARK  185  A    between atoms: _454  and  _456
REMARK  186  A    between atoms: _456  and  _457
REMARK  187  A    between atoms: _456  and  _459
REMARK  188  A    between atoms: _459  and  _460
REMARK  189  A    between atoms: _466  and  _468
REMARK  190  A    between atoms: _468  and  _469
REMARK  191  A    between atoms: _468  and  _471
REMARK  192  A    between atoms: _471  and  _472
REMARK  193  A    between atoms: _475  and  _477
REMARK  194  A    between atoms: _477  and  _478
REMARK  195  A    between atoms: _477  and  _480
REMARK  196  A    between atoms: _483  and  _485
REMARK  197  A    between atoms: _485  and  _486
REMARK  198  A    between atoms: _485  and  _488
REMARK  199  A    between atoms: _488  and  _489
REMARK  200  A    between atoms: _493  and  _494
REMARK  201  A    between atoms: _499  and  _501
REMARK  202  A    between atoms: _501  and  _502
REMARK  203  A    between atoms: _501  and  _504
REMARK  204  A    between atoms: _504  and  _505
REMARK  205  A    between atoms: _509  and  _510
REMARK  206  A    between atoms: _515  and  _517
REMARK  207  A    between atoms: _517  and  _518
REMARK  208  A    between atoms: _517  and  _520
REMARK  209  A    between atoms: _523  and  _525
REMARK  210  A    between atoms: _525  and  _526
REMARK  211  A    between atoms: _525  and  _528
REMARK  212  A    between atoms: _528  and  _529
REMARK  213  A    between atoms: _534  and  _536
REMARK  214  A    between atoms: _536  and  _537
REMARK  215  A    between atoms: _536  and  _539
REMARK  216  A    between atoms: _539  and  _540
REMARK  217  A    between atoms: _543  and  _545
REMARK  218  A    between atoms: _545  and  _546
REMARK  219  A    between atoms: _545  and  _548
REMARK  220  A    between atoms: _548  and  _549
REMARK  221  A    between atoms: _552  and  _554
REMARK  222  A    between atoms: _554  and  _555
REMARK  223  A    between atoms: _557  and  _559
REMARK  224  A    between atoms: _559  and  _560
REMARK  225  A    between atoms: _559  and  _562
REMARK  226  A    between atoms: _562  and  _563
REMARK  227  A    between atoms: _563  and  _564
REMARK  228  A    between atoms: _564  and  _565
REMARK                            x       y       z     vdW  Elec       q    Type
REMARK                         _______ _______ _______ _____ _____    ______ ____
ROOT
ATOM      1  C   ASN A   5      -4.243  -2.986  18.647  0.00  0.00    +0.241 C 
ATOM      2  O   ASN A   5      -3.726  -3.007  19.753  0.00  0.00    -0.273 OA
ATOM      3  N   ILE A   6      -4.059  -2.032  17.763  0.00  0.00    -0.297 N 
ATOM      4  H   ILE A   6      -4.616  -2.034  16.885  0.00  0.00    +0.150 HD
ENDROOT
BRANCH   3   5
ATOM      5  CA  ILE A   6      -3.079  -0.963  17.995  0.00  0.00    +0.149 C 
BRANCH   5   6
ATOM      6  C   ILE A   6      -3.758   0.389  18.158  0.00  0.00    +0.241 C 
ATOM      7  N   ILE A   7      -3.470   1.069  19.257  0.00  0.00    -0.297 N 
ATOM      8  H   ILE A   7      -2.955   0.618  20.040  0.00  0.00    +0.150 HD
ATOM      9  O   ILE A   6      -4.511   0.804  17.304  0.00  0.00    -0.273 OA
BRANCH   7  10
ATOM     10  CA  ILE A   7      -3.885   2.448  19.346  0.00  0.00    +0.149 C 
BRANCH  10  11
ATOM     11  C   ILE A   7      -2.710   3.348  18.974  0.00  0.00    +0.241 C 
ATOM     12  O   ILE A   7      -1.703   3.403  19.664  0.00  0.00    -0.273 OA
ATOM     13  N   GLY A   8      -2.848   4.050  17.861  0.00  0.00    -0.295 N 
ATOM     14  H   GLY A   8      -3.712   3.962  17.289  0.00  0.00    +0.150 HD
BRANCH  13  15
ATOM     15  CA  GLY A   8      -1.773   4.951  17.443  0.00  0.00    +0.176 C 
BRANCH  15  16
ATOM     16  C   GLY A   8      -1.897   6.387  17.902  0.00  0.00    +0.243 C 
ATOM     17  O   GLY A   8      -2.819   6.785  18.595  0.00  0.00    -0.273 OA
ATOM     18  N   ARG A   9      -0.919   7.172  17.449  0.00  0.00    -0.298 N 
ATOM     19  H   ARG A   9      -0.193   6.772  16.821  0.00  0.00    +0.150 HD
BRANCH  18  20
ATOM     20  CA  ARG A   9      -0.848   8.603  17.823  0.00  0.00    +0.137 C 
BRANCH  20  21
ATOM     21  C   ARG A   9      -2.005   9.504  17.434  0.00  0.00    +0.227 C 
ATOM     22  O   ARG A   9      -2.269  10.516  18.055  0.00  0.00    -0.286 OA
ENDBRANCH  20  21
BRANCH  20  23
ATOM     23  CB  ARG A   9       0.429   9.272  17.257  0.00  0.00    +0.031 C 
BRANCH  23  24
ATOM     24  CG  ARG A   9       1.756   8.729  17.763  0.00  0.00    +0.045 C 
BRANCH  24  25
ATOM     25  CD  ARG A   9       2.897   9.689  17.435  0.00  0.00    +0.174 C 
BRANCH  25  26
ATOM     26  NE  ARG A   9       3.110   9.660  15.998  0.00  0.00    -0.265 N 
ATOM     27  HE  ARG A   9       3.640   8.862  15.592  0.00  0.00    +0.259 HD
ATOM     28  CZ  ARG A   9       2.658  10.609  15.174  0.00  0.00    +0.342 C 
ATOM     29  NH2 ARG A   9       2.110  11.739  15.633  0.00  0.00    -0.292 N 
ATOM     30 HH21 ARG A   9       2.027  11.898  16.657  0.00  0.00    +0.255 HD
ATOM     31 HH22 ARG A   9       1.767  12.459  14.966  0.00  0.00    +0.255 HD
ATOM     32  NH1 ARG A   9       2.735  10.398  13.863  0.00  0.00    -0.292 N 
ATOM     33 HH11 ARG A   9       3.140   9.511  13.502  0.00  0.00    +0.255 HD
ATOM     34 HH12 ARG A   9       2.390  11.120  13.199  0.00  0.00    +0.255 HD
ENDBRANCH  25  26
ENDBRANCH  24  25
ENDBRANCH  23  24
ENDBRANCH  20  23
ENDBRANCH  18  20
ENDBRANCH  15  16
ENDBRANCH  13  15
ENDBRANCH  10  11
BRANCH  10  35
ATOM     35  CB  ILE A   7      -4.385   2.760  20.786  0.00  0.00    +0.027 C 
ATOM     36  CG2 ILE A   7      -4.889   4.203  20.903  0.00  0.00    +0.002 C 
BRANCH  35  37
ATOM     37  CG1 ILE A   7      -5.521   1.853  21.250  0.00  0.00    +0.002 C 
ATOM     38  CD1 ILE A   7      -6.778   1.928  20.369  0.00  0.00    +0.000 C 
ENDBRANCH  35  37
ENDBRANCH  10  35
ENDBRANCH   7  10
ENDBRANCH   5   6
BRANCH   5  39
ATOM     39  CB  ILE A   6      -2.149  -0.860  16.772  0.00  0.00    +0.027 C 
ATOM     40  CG2 ILE A   6      -1.215   0.361  16.853  0.00  0.00    +0.002 C 
BRANCH  39  41
ATOM     41  CG1 ILE A   6      -1.332  -2.112  16.480  0.00  0.00    +0.002 C 
ATOM     42  CD1 ILE A   6      -0.446  -2.419  17.659  0.00  0.00    +0.000 C 
ENDBRANCH  39  41
ENDBRANCH   5  39
ENDBRANCH   3   5
BRANCH   1  43
ATOM     43  CA  ASN A   5      -5.163  -4.089  18.211  0.00  0.00    +0.158 C 
BRANCH  43  45
ATOM     44  C   VAL A   4      -3.583  -5.711  17.511  0.00  0.00    +0.241 C 
ATOM     45  N   ASN A   5      -4.559  -5.424  18.333  0.00  0.00    -0.297 N 
ATOM     46  H   ASN A   5      -4.893  -6.109  19.041  0.00  0.00    +0.150 HD
ATOM     47  O   VAL A   4      -3.246  -4.967  16.603  0.00  0.00    -0.273 OA
BRANCH  44  48
ATOM     48  CA  VAL A   4      -2.867  -7.023  17.735  0.00  0.00    +0.149 C 
BRANCH  48  51
ATOM     49  C   PRO A   3      -2.425  -8.968  16.239  0.00  0.00    +0.241 C 
ATOM     50  O   PRO A   3      -2.801  -9.765  17.090  0.00  0.00    -0.273 OA
ATOM     51  N   VAL A   4      -2.464  -7.642  16.448  0.00  0.00    -0.297 N 
ATOM     52  H   VAL A   4      -2.197  -7.014  15.664  0.00  0.00    +0.150 HD
BRANCH  49  56
ATOM     53  C   THR A   2      -3.340  -8.101  13.415  0.00  0.00    +0.246 C 
ATOM     54  O   THR A   2      -4.312  -8.588  13.969  0.00  0.00    -0.273 OA
ATOM     55  N   PRO A   3      -2.105  -8.482  13.714  0.00  0.00    -0.272 N 
ATOM     56  CA  PRO A   3      -1.868  -9.399  14.848  0.00  0.00    +0.152 C 
ATOM     57  CB  PRO A   3      -0.331  -9.446  14.858  0.00  0.00    +0.031 C 
ATOM     58  CG  PRO A   3       0.184  -9.005  13.481  0.00  0.00    +0.024 C 
ATOM     59  CD  PRO A   3      -0.893  -8.081  12.978  0.00  0.00    +0.094 C 
BRANCH  53  60
ATOM     60  CA  THR A   2      -3.453  -7.037  12.340  0.00  0.00    +0.176 C 
BRANCH  60  62
ATOM     61  C   PRO A   1      -4.372  -8.097  10.338  0.00  0.00    +0.239 C 
ATOM     62  N   THR A   2      -4.545  -7.295  11.396  0.00  0.00    -0.295 N 
ATOM     63  H   THR A   2      -5.471  -6.847  11.551  0.00  0.00    +0.150 HD
ATOM     64  O   PRO A   1      -3.273  -8.558  10.069  0.00  0.00    -0.274 OA
BRANCH  61  66
ATOM     65  N   PRO A   1      -6.336  -7.174   8.920  0.00  0.00    -0.210 NA
ATOM     66  CA  PRO A   1      -5.678  -8.358   9.534  0.00  0.00    +0.149 C 
ATOM     67  CB  PRO A   1      -5.510  -9.282   8.297  0.00  0.00    +0.028 C 
ATOM     68  CG  PRO A   1      -5.321  -8.324   7.132  0.00  0.00    +0.021 C 
ATOM     69  CD  PRO A   1      -6.226  -7.130   7.472  0.00  0.00    +0.089 C 
ENDBRANCH  61  66
ENDBRANCH  60  62
BRANCH  60  70
ATOM     70  CB  THR A   2      -3.640  -5.633  12.976  0.00  0.00    +0.137 C 
ATOM     71  CG2 THR A   2      -4.982  -5.455  13.671  0.00  0.00    +0.034 C 
BRANCH  70  72
ATOM     72  OG1 THR A   2      -2.578  -5.362  13.899  0.00  0.00    -0.382 OA
ATOM     73  HG1 THR A   2      -2.582  -6.046  14.615  0.00  0.00    +0.210 HD
ENDBRANCH  70  72
ENDBRANCH  60  70
ENDBRANCH  53  60
ENDBRANCH  49  56
ENDBRANCH  48  51
BRANCH  48  74
ATOM     74  CB  VAL A   4      -1.577  -6.773  18.569  0.00  0.00    +0.027 C 
ATOM     75  CG2 VAL A   4      -1.813  -6.102  19.922  0.00  0.00    +0.002 C 
ATOM     76  CG1 VAL A   4      -0.596  -5.888  17.824  0.00  0.00    +0.002 C 
ENDBRANCH  48  74
ENDBRANCH  44  48
ENDBRANCH  43  45
BRANCH  43  77
ATOM     77  CB  ASN A   5      -6.390  -3.928  19.106  0.00  0.00    +0.114 C 
BRANCH  77  78
ATOM     78  CG  ASN A   5      -7.406  -4.941  18.726  0.00  0.00    +0.222 C 
ATOM     79  ND2 ASN A   5      -7.981  -5.594  19.674  0.00  0.00    -0.329 N 
ATOM     80 HD21 ASN A   5      -7.739  -5.392  20.665  0.00  0.00    +0.145 HD
ATOM     81 HD22 ASN A   5      -8.687  -6.323  19.449  0.00  0.00    +0.145 HD
ATOM     82  OD1 ASN A   5      -7.682  -5.171  17.588  0.00  0.00    -0.275 OA
ENDBRANCH  77  78
ENDBRANCH  43  77
ENDBRANCH   1  43
TORSDOF 29
REMARK  Name = ../refined-set-2016/1hvl/1hvl_pocket.pdb
REMARK  228 active torsions:
REMARK  status: ('A' for Active; 'I' for Inactive)
REMARK    1  A    between atoms: _1  and  _3
REMARK    2  A    between atoms: _3  and  _4
REMARK    3  A    between atoms: _3  and  _6
REMARK    4  A    between atoms: _6  and  _7
REMARK    5  A    between atoms: _7  and  _8
REMARK    6  A    between atoms: _8  and  _9
REMARK    7  A    between atoms: _19  and  _20
REMARK    8  A    between atoms: _25  and  _27
REMARK    9  A    between atoms: _27  and  _28
REMARK   10  A    between atoms: _27  and  _30
REMARK   11  A    between atoms: _30  and  _31
REMARK   12  A    between atoms: _34  and  _36
REMARK   13  A    between atoms: _36  and  _37
REMARK   14  A    between atoms: _36  and  _39
REMARK   15  A    between atoms: _39  and  _40
REMARK   16  A    between atoms: _43  and  _45
REMARK   17  A    between atoms: _45  and  _46
REMARK   18  A    between atoms: _45  and  _48
REMARK   19  A    between atoms: _48  and  _49
REMARK   20  A    between atoms: _52  and  _54
REMARK   21  A    between atoms: _54  and  _55
REMARK   22  A    between atoms: _54  and  _57
REMARK   23  A    between atoms: _57  and  _58
REMARK   24  A    between atoms: _61  and  _63
REMARK   25  A    between atoms: _63  and  _64
REMARK   26  A    between atoms: _63  and  _66
REMARK   27  A    between atoms: _66  and  _67
REMARK   28  A    between atoms: _70  and  _72
REMARK   29  A    between atoms: _72  and  _73
REMARK   30  A    between atoms: _75  and  _77
REMARK   31  A    between atoms: _77  and  _78
REMARK   32  A    between atoms: _81  and  _83
REMARK   33  A    between atoms: _83  and  _84
REMARK   34  A    between atoms: _83  and  _86
REMARK   35  A    between atoms: _86  and  _87
REMARK   36  A    between atoms: _90  and  _92
REMARK   37  A    between atoms: _92  and  _93
REMARK   38  A    between atoms: _92  and  _95
REMARK   39  A    between atoms: _95  and  _96
REMARK   40  A    between atoms: _99  and  _101
REMARK   41  A    between atoms: _101  and  _102
REMARK   42  A    between atoms: _101  and  _104
REMARK   43  A    between atoms: _104  and  _105
REMARK   44  A    between atoms: _108  and  _110
REMARK   45  A    between atoms: _110  and  _111
REMARK   46  A    between atoms: _110  and  _113
REMARK   47  A    between atoms: _116  and  _118
REMARK   48  A    between atoms: _118  and  _119
REMARK   49  A    between atoms: _118  and  _121
REMARK   50  A    between atoms: _121  and  _122
REMARK   51  A    between atoms: _122  and  _123
REMARK   52  A    between atoms: _123  and  _124
REMARK   53  A    between atoms: _124  and  _125
REMARK   54  A    between atoms: _129  and  _131
REMARK   55  A    between atoms: _131  and  _132
REMARK   56  A    between atoms: _131  and  _134
REMARK   57  A    between atoms: _134  and  _135
REMARK   58  A    between atoms: _138  and  _140
REMARK   59  A    between atoms: _140  and  _141
REMARK   60  A    between atoms: _143  and  _145
REMARK   61  A    between atoms: _145  and  _146
REMARK   62  A    between atoms: _148  and  _150
REMARK   63  A    between atoms: _150  and  _151
REMARK   64  A    between atoms: _150  and  _153
REMARK   65  A    between atoms: _153  and  _154
REMARK   66  A    between atoms: _157  and  _159
REMARK   67  A    between atoms: _159  and  _160
REMARK   68  A    between atoms: _162  and  _164
REMARK   69  A    between atoms: _164  and  _165
REMARK   70  A    between atoms: _167  and  _169
REMARK   71  A    between atoms: _169  and  _170
REMARK   72  A    between atoms: _169  and  _172
REMARK   73  A    between atoms: _172  and  _173
REMARK   74  A    between atoms: _179  and  _181
REMARK   75  A    between atoms: _181  and  _182
REMARK   76  A    between atoms: _181  and  _184
REMARK   77  A    between atoms: _184  and  _185
REMARK   78  A    between atoms: _188  and  _190
REMARK   79  A    between atoms: _190  and  _191
REMARK   80  A    between atoms: _190  and  _193
REMARK   81  A    between atoms: _193  and  _194
REMARK   82  A    between atoms: _198  and  _199
REMARK   83  A    between atoms: _204  and  _206
REMARK   84  A    between atoms: _206  and  _207
REMARK   85  A    between atoms: _206  and  _209
REMARK   86  A    between atoms: _209  and  _210
REMARK   87  A    between atoms: _214  and  _215
REMARK   88  A    between atoms: _220  and  _222
REMARK   89  A    between atoms: _222  and  _223
REMARK   90  A    between atoms: _222  and  _225
REMARK   91  A    between atoms: _228  and  _230
REMARK   92  A    between atoms: _230  and  _231
REMARK   93  A    between atoms: _230  and  _233
REMARK   94  A    between atoms: _233  and  _234
REMARK   95  A    between atoms: _239  and  _241
REMARK   96  A    between atoms: _241  and  _242
REMARK   97  A    between atoms: _241  and  _244
REMARK   98  A    between atoms: _244  and  _245
REMARK   99  A    between atoms: _248  and  _250
REMARK  100  A    between atoms: _250  and  _251
REMARK  101  A    between atoms: _250  and  _253
REMARK  102  A    between atoms: _253  and  _254
REMARK  103  A    between atoms: _257  and  _259
REMARK  104  A    between atoms: _259  and  _260
REMARK  105  A    between atoms: _262  and  _264
REMARK  106  A    between atoms: _264  and  _265
REMARK  107  A    between atoms: _264  and  _267
REMARK  108  A    between atoms: _267  and  _268
REMARK  109  A    between atoms: _268  and  _269
REMARK  110  A    between atoms: _269  and  _270
REMARK  111  A    between atoms: _279  and  _281
REMARK  112  A    between atoms: _281  and  _282
REMARK  113  A    between atoms: _281  and  _284
REMARK  114  A    between atoms: _284  and  _285
REMARK  115  A    between atoms: _285  and  _286
REMARK  116  A    between atoms: _286  and  _287
REMARK  117  A    between atoms: _297  and  _298
REMARK  118  A    between atoms: _303  and  _305
REMARK  119  A    between atoms: _305  and  _306
REMARK  120  A    between atoms: _305  and  _308
REMARK  121  A    between atoms: _308  and  _309
REMARK  122  A    between atoms: _312  and  _314
REMARK  123  A    between atoms: _314  and  _315
REMARK  124  A    between atoms: _314  and  _317
REMARK  125  A    between atoms: _317  and  _318
REMARK  126  A    between atoms: _321  and  _323
REMARK  127  A    between atoms: _323  and  _324
REMARK  128  A    between atoms: _323  and  _326
REMARK  129  A    between atoms: _326  and  _327
REMARK  130  A    between atoms: _330  and  _332
REMARK  131  A    between atoms: _332  and  _333
REMARK  132  A    between atoms: _332  and  _335
REMARK  133  A    between atoms: _335  and  _336
REMARK  134  A    between atoms: _339  and  _341
REMARK  135  A    between atoms: _341  and  _342
REMARK  136  A    between atoms: _341  and  _344
REMARK  137  A    between atoms: _344  and  _345
REMARK  138  A    between atoms: _348  and  _350
REMARK  139  A    between atoms: _350  and  _351
REMARK  140  A    between atoms: _353  and  _355
REMARK  141  A    between atoms: _355  and  _356
REMARK  142  A    between atoms: _359  and  _361
REMARK  143  A    between atoms: _361  and  _362
REMARK  144  A    between atoms: _361  and  _364
REMARK  145  A    between atoms: _364  and  _365
REMARK  146  A    between atoms: _368  and  _370
REMARK  147  A    between atoms: _370  and  _371
REMARK  148  A    between atoms: _370  and  _373
REMARK  149  A    between atoms: _373  and  _374
REMARK  150  A    between atoms: _377  and  _379
REMARK  151  A    between atoms: _379  and  _380
REMARK  152  A    between atoms: _379  and  _382
REMARK  153  A    between atoms: _382  and  _383
REMARK  154  A    between atoms: _386  and  _388
REMARK  155  A    between atoms: _388  and  _389
REMARK  156  A    between atoms: _388  and  _391
REMARK  157  A    between atoms: _394  and  _396
REMARK  158  A    between atoms: _396  and  _397
REMARK  159  A    between atoms: _396  and  _399
REMARK  160  A    between atoms: _399  and  _400
REMARK  161  A    between atoms: _400  and  _401
REMARK  162  A    between atoms: _401  and  _402
REMARK  163  A    between atoms: _402  and  _403
REMARK  164  A    between atoms: _407  and  _409
REMARK  165  A    between atoms: _409  and  _410
REMARK  166  A    between atoms: _409  and  _412
REMARK  167  A    between atoms: _412  and  _413
REMARK  168  A    between atoms: _413  and  _414
REMARK  169  A    between atoms: _416  and  _418
REMARK  170  A    between atoms: _418  and  _419
REMARK  171  A    between atoms: _418  and  _421
REMARK  172  A    between atoms: _421  and  _422
REMARK  173  A    between atoms: _425  and  _427
REMARK  174  A    between atoms: _427  and  _428
REMARK  175  A    between atoms: _430  and  _432
REMARK  176  A    between atoms: _432  and  _433
REMARK  177  A    between atoms: _435  and  _437
REMARK  178  A    between atoms: _437  and  _438
REMARK  179  A    between atoms: _437  and  _440
REMARK  180  A    between atoms: _440  and  _441
REMARK  181  A    between atoms: _444  and  _446
REMARK  182  A    between atoms: _446  and  _447
REMARK  183  A    between atoms: _449  and  _451
REMARK  184  A    between atoms: _451  and  _452
REMARK  185  A    between atoms: _454  and  _456
REMARK  186  A    between atoms: _456  and  _457
REMARK  187  A    between atoms: _456  and  _459
REMARK  188  A    between atoms: _459  and  _460
REMARK  189  A    between atoms: _466  and  _468
REMARK  190  A    between atoms: _468  and  _469
REMARK  191  A    between atoms: _468  and  _471
REMARK  192  A    between atoms: _471  and  _472
REMARK  193  A    between atoms: _475  and  _477
REMARK  194  A    between atoms: _477  and  _478
REMARK  195  A    between atoms: _477  and  _480
REMARK  196  A    between atoms: _483  and  _485
REMARK  197  A    between atoms: _485  and  _486
REMARK  198  A    between atoms: _485  and  _488
REMARK  199  A    between atoms: _488  and  _489
REMARK  200  A    between atoms: _493  and  _494
REMARK  201  A    between atoms: _499  and  _501
REMARK  202  A    between atoms: _501  and  _502
REMARK  203  A    between atoms: _501  and  _504
REMARK  204  A    between atoms: _504  and  _505
REMARK  205  A    between atoms: _509  and  _510
REMARK  206  A    between atoms: _515  and  _517
REMARK  207  A    between atoms: _517  and  _518
REMARK  208  A    between atoms: _517  and  _520
REMARK  209  A    between atoms: _523  and  _525
REMARK  210  A    between atoms: _525  and  _526
REMARK  211  A    between atoms: _525  and  _528
REMARK  212  A    between atoms: _528  and  _529
REMARK  213  A    between atoms: _534  and  _536
REMARK  214  A    between atoms: _536  and  _537
REMARK  215  A    between atoms: _536  and  _539
REMARK  216  A    between atoms: _539  and  _540
REMARK  217  A    between atoms: _543  and  _545
REMARK  218  A    between atoms: _545  and  _546
REMARK  219  A    between atoms: _545  and  _548
REMARK  220  A    between atoms: _548  and  _549
REMARK  221  A    between atoms: _552  and  _554
REMARK  222  A    between atoms: _554  and  _555
REMARK  223  A    between atoms: _557  and  _559
REMARK  224  A    between atoms: _559  and  _560
REMARK  225  A    between atoms: _559  and  _562
REMARK  226  A    between atoms: _562  and  _563
REMARK  227  A    between atoms: _563  and  _564
REMARK  228  A    between atoms: _564  and  _565
REMARK                            x       y       z     vdW  Elec       q    Type
REMARK                         _______ _______ _______ _____ _____    ______ ____
ROOT
ATOM      1  C   ARG A   1       7.653  11.278  16.706  0.00  0.00    +0.241 C 
ATOM      2  N   PRO A   2       7.675  10.480  17.771  0.00  0.00    -0.272 N 
ATOM      3  CA  PRO A   2       8.687  10.694  18.823  0.00  0.00    +0.152 C 
ATOM      4  CB  PRO A   2       8.074   9.914  19.992  0.00  0.00    +0.031 C 
ATOM      5  CG  PRO A   2       7.287   8.768  19.356  0.00  0.00    +0.024 C 
ATOM      6  CD  PRO A   2       6.713   9.432  18.114  0.00  0.00    +0.094 C 
ATOM      7  O   ARG A   1       8.431  12.199  16.552  0.00  0.00    -0.273 OA
ENDROOT
BRANCH   3   8
ATOM      8  C   PRO A   2      10.049  10.199  18.438  0.00  0.00    +0.241 C 
ATOM      9  O   PRO A   2      10.539   9.183  18.885  0.00  0.00    -0.273 OA
ATOM     10  N   LEU A   3      10.656  10.976  17.553  0.00  0.00    -0.298 N 
ATOM     11  H   LEU A   3      10.120  11.744  17.101  0.00  0.00    +0.150 HD
BRANCH  10  12
ATOM     12  CA  LEU A   3      12.073  10.779  17.192  0.00  0.00    +0.137 C 
BRANCH  12  13
ATOM     13  C   LEU A   3      13.069  11.504  18.082  0.00  0.00    +0.227 C 
ATOM     14  O   LEU A   3      13.014  12.689  18.343  0.00  0.00    -0.286 OA
ENDBRANCH  12  13
BRANCH  12  15
ATOM     15  CB  LEU A   3      12.371  11.234  15.756  0.00  0.00    +0.028 C 
BRANCH  15  16
ATOM     16  CG  LEU A   3      11.546  10.467  14.735  0.00  0.00    +0.002 C 
ATOM     17  CD2 LEU A   3      12.036   9.038  14.563  0.00  0.00    +0.000 C 
ATOM     18  CD1 LEU A   3      11.575  11.260  13.435  0.00  0.00    +0.000 C 
ENDBRANCH  15  16
ENDBRANCH  12  15
ENDBRANCH  10  12
ENDBRANCH   3   8
BRANCH   1  19
ATOM     19  CA  ARG A   1       6.573  11.045  15.643  0.00  0.00    +0.145 C 
BRANCH  19  20
ATOM     20  N   ARG A   1       5.889  12.283  15.205  0.00  0.00    -0.238 NA
ATOM     21  H   ARG A   1       5.880  12.583  14.209  0.00  0.00    +0.142 HD
ENDBRANCH  19  20
BRANCH  19  22
ATOM     22  CB  ARG A   1       7.268  10.372  14.464  0.00  0.00    +0.030 C 
BRANCH  22  23
ATOM     23  CG  ARG A   1       6.311  10.022  13.351  0.00  0.00    +0.045 C 
BRANCH  23  24
ATOM     24  CD  ARG A   1       6.986   9.417  12.137  0.00  0.00    +0.174 C 
BRANCH  24  25
ATOM     25  NE  ARG A   1       5.937   9.013  11.204  0.00  0.00    -0.265 N 
ATOM     26  HE  ARG A   1       5.053   8.607  11.572  0.00  0.00    +0.259 HD
ATOM     27  CZ  ARG A   1       6.093   9.155   9.903  0.00  0.00    +0.342 C 
ATOM     28  NH2 ARG A   1       7.266   9.572   9.423  0.00  0.00    -0.292 N 
ATOM     29 HH21 ARG A   1       8.049   9.782  10.074  0.00  0.00    +0.255 HD
ATOM     30 HH22 ARG A   1       7.397   9.687   8.398  0.00  0.00    +0.255 HD
ATOM     31  NH1 ARG A   1       5.060   8.883   9.119  0.00  0.00    -0.292 N 
ATOM     32 HH11 ARG A   1       4.160   8.568   9.535  0.00  0.00    +0.255 HD
ATOM     33 HH12 ARG A   1       5.149   8.985   8.088  0.00  0.00    +0.255 HD
ENDBRANCH  24  25
ENDBRANCH  23  24
ENDBRANCH  22  23
ENDBRANCH  19  22
ENDBRANCH   1  19
TORSDOF 11
REMARK  Name = ../refined-set-2016/1hvl/1hvl_pocket.pdb
REMARK  228 active torsions:
REMARK  status: ('A' for Active; 'I' for Inactive)
REMARK    1  A    between atoms: _1  and  _3
REMARK    2  A    between atoms: _3  and  _4
REMARK    3  A    between atoms: _3  and  _6
REMARK    4  A    between atoms: _6  and  _7
REMARK    5  A    between atoms: _7  and  _8
REMARK    6  A    between atoms: _8  and  _9
REMARK    7  A    between atoms: _19  and  _20
REMARK    8  A    between atoms: _25  and  _27
REMARK    9  A    between atoms: _27  and  _28
REMARK   10  A    between atoms: _27  and  _30
REMARK   11  A    between atoms: _30  and  _31
REMARK   12  A    between atoms: _34  and  _36
REMARK   13  A    between atoms: _36  and  _37
REMARK   14  A    between atoms: _36  and  _39
REMARK   15  A    between atoms: _39  and  _40
REMARK   16  A    between atoms: _43  and  _45
REMARK   17  A    between atoms: _45  and  _46
REMARK   18  A    between atoms: _45  and  _48
REMARK   19  A    between atoms: _48  and  _49
REMARK   20  A    between atoms: _52  and  _54
REMARK   21  A    between atoms: _54  and  _55
REMARK   22  A    between atoms: _54  and  _57
REMARK   23  A    between atoms: _57  and  _58
REMARK   24  A    between atoms: _61  and  _63
REMARK   25  A    between atoms: _63  and  _64
REMARK   26  A    between atoms: _63  and  _66
REMARK   27  A    between atoms: _66  and  _67
REMARK   28  A    between atoms: _70  and  _72
REMARK   29  A    between atoms: _72  and  _73
REMARK   30  A    between atoms: _75  and  _77
REMARK   31  A    between atoms: _77  and  _78
REMARK   32  A    between atoms: _81  and  _83
REMARK   33  A    between atoms: _83  and  _84
REMARK   34  A    between atoms: _83  and  _86
REMARK   35  A    between atoms: _86  and  _87
REMARK   36  A    between atoms: _90  and  _92
REMARK   37  A    between atoms: _92  and  _93
REMARK   38  A    between atoms: _92  and  _95
REMARK   39  A    between atoms: _95  and  _96
REMARK   40  A    between atoms: _99  and  _101
REMARK   41  A    between atoms: _101  and  _102
REMARK   42  A    between atoms: _101  and  _104
REMARK   43  A    between atoms: _104  and  _105
REMARK   44  A    between atoms: _108  and  _110
REMARK   45  A    between atoms: _110  and  _111
REMARK   46  A    between atoms: _110  and  _113
REMARK   47  A    between atoms: _116  and  _118
REMARK   48  A    between atoms: _118  and  _119
REMARK   49  A    between atoms: _118  and  _121
REMARK   50  A    between atoms: _121  and  _122
REMARK   51  A    between atoms: _122  and  _123
REMARK   52  A    between atoms: _123  and  _124
REMARK   53  A    between atoms: _124  and  _125
REMARK   54  A    between atoms: _129  and  _131
REMARK   55  A    between atoms: _131  and  _132
REMARK   56  A    between atoms: _131  and  _134
REMARK   57  A    between atoms: _134  and  _135
REMARK   58  A    between atoms: _138  and  _140
REMARK   59  A    between atoms: _140  and  _141
REMARK   60  A    between atoms: _143  and  _145
REMARK   61  A    between atoms: _145  and  _146
REMARK   62  A    between atoms: _148  and  _150
REMARK   63  A    between atoms: _150  and  _151
REMARK   64  A    between atoms: _150  and  _153
REMARK   65  A    between atoms: _153  and  _154
REMARK   66  A    between atoms: _157  and  _159
REMARK   67  A    between atoms: _159  and  _160
REMARK   68  A    between atoms: _162  and  _164
REMARK   69  A    between atoms: _164  and  _165
REMARK   70  A    between atoms: _167  and  _169
REMARK   71  A    between atoms: _169  and  _170
REMARK   72  A    between atoms: _169  and  _172
REMARK   73  A    between atoms: _172  and  _173
REMARK   74  A    between atoms: _179  and  _181
REMARK   75  A    between atoms: _181  and  _182
REMARK   76  A    between atoms: _181  and  _184
REMARK   77  A    between atoms: _184  and  _185
REMARK   78  A    between atoms: _188  and  _190
REMARK   79  A    between atoms: _190  and  _191
REMARK   80  A    between atoms: _190  and  _193
REMARK   81  A    between atoms: _193  and  _194
REMARK   82  A    between atoms: _198  and  _199
REMARK   83  A    between atoms: _204  and  _206
REMARK   84  A    between atoms: _206  and  _207
REMARK   85  A    between atoms: _206  and  _209
REMARK   86  A    between atoms: _209  and  _210
REMARK   87  A    between atoms: _214  and  _215
REMARK   88  A    between atoms: _220  and  _222
REMARK   89  A    between atoms: _222  and  _223
REMARK   90  A    between atoms: _222  and  _225
REMARK   91  A    between atoms: _228  and  _230
REMARK   92  A    between atoms: _230  and  _231
REMARK   93  A    between atoms: _230  and  _233
REMARK   94  A    between atoms: _233  and  _234
REMARK   95  A    between atoms: _239  and  _241
REMARK   96  A    between atoms: _241  and  _242
REMARK   97  A    between atoms: _241  and  _244
REMARK   98  A    between atoms: _244  and  _245
REMARK   99  A    between atoms: _248  and  _250
REMARK  100  A    between atoms: _250  and  _251
REMARK  101  A    between atoms: _250  and  _253
REMARK  102  A    between atoms: _253  and  _254
REMARK  103  A    between atoms: _257  and  _259
REMARK  104  A    between atoms: _259  and  _260
REMARK  105  A    between atoms: _262  and  _264
REMARK  106  A    between atoms: _264  and  _265
REMARK  107  A    between atoms: _264  and  _267
REMARK  108  A    between atoms: _267  and  _268
REMARK  109  A    between atoms: _268  and  _269
REMARK  110  A    between atoms: _269  and  _270
REMARK  111  A    between atoms: _279  and  _281
REMARK  112  A    between atoms: _281  and  _282
REMARK  113  A    between atoms: _281  and  _284
REMARK  114  A    between atoms: _284  and  _285
REMARK  115  A    between atoms: _285  and  _286
REMARK  116  A    between atoms: _286  and  _287
REMARK  117  A    between atoms: _297  and  _298
REMARK  118  A    between atoms: _303  and  _305
REMARK  119  A    between atoms: _305  and  _306
REMARK  120  A    between atoms: _305  and  _308
REMARK  121  A    between atoms: _308  and  _309
REMARK  122  A    between atoms: _312  and  _314
REMARK  123  A    between atoms: _314  and  _315
REMARK  124  A    between atoms: _314  and  _317
REMARK  125  A    between atoms: _317  and  _318
REMARK  126  A    between atoms: _321  and  _323
REMARK  127  A    between atoms: _323  and  _324
REMARK  128  A    between atoms: _323  and  _326
REMARK  129  A    between atoms: _326  and  _327
REMARK  130  A    between atoms: _330  and  _332
REMARK  131  A    between atoms: _332  and  _333
REMARK  132  A    between atoms: _332  and  _335
REMARK  133  A    between atoms: _335  and  _336
REMARK  134  A    between atoms: _339  and  _341
REMARK  135  A    between atoms: _341  and  _342
REMARK  136  A    between atoms: _341  and  _344
REMARK  137  A    between atoms: _344  and  _345
REMARK  138  A    between atoms: _348  and  _350
REMARK  139  A    between atoms: _350  and  _351
REMARK  140  A    between atoms: _353  and  _355
REMARK  141  A    between atoms: _355  and  _356
REMARK  142  A    between atoms: _359  and  _361
REMARK  143  A    between atoms: _361  and  _362
REMARK  144  A    between atoms: _361  and  _364
REMARK  145  A    between atoms: _364  and  _365
REMARK  146  A    between atoms: _368  and  _370
REMARK  147  A    between atoms: _370  and  _371
REMARK  148  A    between atoms: _370  and  _373
REMARK  149  A    between atoms: _373  and  _374
REMARK  150  A    between atoms: _377  and  _379
REMARK  151  A    between atoms: _379  and  _380
REMARK  152  A    between atoms: _379  and  _382
REMARK  153  A    between atoms: _382  and  _383
REMARK  154  A    between atoms: _386  and  _388
REMARK  155  A    between atoms: _388  and  _389
REMARK  156  A    between atoms: _388  and  _391
REMARK  157  A    between atoms: _394  and  _396
REMARK  158  A    between atoms: _396  and  _397
REMARK  159  A    between atoms: _396  and  _399
REMARK  160  A    between atoms: _399  and  _400
REMARK  161  A    between atoms: _400  and  _401
REMARK  162  A    between atoms: _401  and  _402
REMARK  163  A    between atoms: _402  and  _403
REMARK  164  A    between atoms: _407  and  _409
REMARK  165  A    between atoms: _409  and  _410
REMARK  166  A    between atoms: _409  and  _412
REMARK  167  A    between atoms: _412  and  _413
REMARK  168  A    between atoms: _413  and  _414
REMARK  169  A    between atoms: _416  and  _418
REMARK  170  A    between atoms: _418  and  _419
REMARK  171  A    between atoms: _418  and  _421
REMARK  172  A    between atoms: _421  and  _422
REMARK  173  A    between atoms: _425  and  _427
REMARK  174  A    between atoms: _427  and  _428
REMARK  175  A    between atoms: _430  and  _432
REMARK  176  A    between atoms: _432  and  _433
REMARK  177  A    between atoms: _435  and  _437
REMARK  178  A    between atoms: _437  and  _438
REMARK  179  A    between atoms: _437  and  _440
REMARK  180  A    between atoms: _440  and  _441
REMARK  181  A    between atoms: _444  and  _446
REMARK  182  A    between atoms: _446  and  _447
REMARK  183  A    between atoms: _449  and  _451
REMARK  184  A    between atoms: _451  and  _452
REMARK  185  A    between atoms: _454  and  _456
REMARK  186  A    between atoms: _456  and  _457
REMARK  187  A    between atoms: _456  and  _459
REMARK  188  A    between atoms: _459  and  _460
REMARK  189  A    between atoms: _466  and  _468
REMARK  190  A    between atoms: _468  and  _469
REMARK  191  A    between atoms: _468  and  _471
REMARK  192  A    between atoms: _471  and  _472
REMARK  193  A    between atoms: _475  and  _477
REMARK  194  A    between atoms: _477  and  _478
REMARK  195  A    between atoms: _477  and  _480
REMARK  196  A    between atoms: _483  and  _485
REMARK  197  A    between atoms: _485  and  _486
REMARK  198  A    between atoms: _485  and  _488
REMARK  199  A    between atoms: _488  and  _489
REMARK  200  A    between atoms: _493  and  _494
REMARK  201  A    between atoms: _499  and  _501
REMARK  202  A    between atoms: _501  and  _502
REMARK  203  A    between atoms: _501  and  _504
REMARK  204  A    between atoms: _504  and  _505
REMARK  205  A    between atoms: _509  and  _510
REMARK  206  A    between atoms: _515  and  _517
REMARK  207  A    between atoms: _517  and  _518
REMARK  208  A    between atoms: _517  and  _520
REMARK  209  A    between atoms: _523  and  _525
REMARK  210  A    between atoms: _525  and  _526
REMARK  211  A    between atoms: _525  and  _528
REMARK  212  A    between atoms: _528  and  _529
REMARK  213  A    between atoms: _534  and  _536
REMARK  214  A    between atoms: _536  and  _537
REMARK  215  A    between atoms: _536  and  _539
REMARK  216  A    between atoms: _539  and  _540
REMARK  217  A    between atoms: _543  and  _545
REMARK  218  A    between atoms: _545  and  _546
REMARK  219  A    between atoms: _545  and  _548
REMARK  220  A    between atoms: _548  and  _549
REMARK  221  A    between atoms: _552  and  _554
REMARK  222  A    between atoms: _554  and  _555
REMARK  223  A    between atoms: _557  and  _559
REMARK  224  A    between atoms: _559  and  _560
REMARK  225  A    between atoms: _559  and  _562
REMARK  226  A    between atoms: _562  and  _563
REMARK  227  A    between atoms: _563  and  _564
REMARK  228  A    between atoms: _564  and  _565
REMARK                            x       y       z     vdW  Elec       q    Type
REMARK                         _______ _______ _______ _____ _____    ______ ____
ROOT
ATOM      1  C   GLY A   5       5.451  -2.031  20.477  0.00  0.00    +0.243 C 
ATOM      2  N   ALA A   6       6.746  -1.681  20.458  0.00  0.00    -0.297 N 
ATOM      3  H   ALA A   6       7.022  -0.700  20.668  0.00  0.00    +0.150 HD
ATOM      4  O   GLY A   5       5.076  -3.152  20.170  0.00  0.00    -0.273 OA
ENDROOT
BRANCH   2   5
ATOM      5  CA  ALA A   6       7.777  -2.683  20.141  0.00  0.00    +0.149 C 
ATOM      6  CB  ALA A   6       8.912  -1.970  19.428  0.00  0.00    +0.031 C 
BRANCH   5   7
ATOM      7  C   ALA A   6       8.330  -3.400  21.367  0.00  0.00    +0.241 C 
ATOM      8  O   ALA A   6       8.751  -2.796  22.349  0.00  0.00    -0.273 OA
ATOM      9  N   ASP A   7       8.345  -4.717  21.327  0.00  0.00    -0.297 N 
ATOM     10  H   ASP A   7       7.924  -5.264  20.549  0.00  0.00    +0.150 HD
BRANCH   9  11
ATOM     11  CA  ASP A   7       9.007  -5.345  22.475  0.00  0.00    +0.160 C 
BRANCH  11  12
ATOM     12  C   ASP A   7      10.526  -5.206  22.533  0.00  0.00    +0.241 C 
ATOM     13  O   ASP A   7      11.178  -5.158  23.567  0.00  0.00    -0.273 OA
ATOM     14  N   ASP A   8      11.055  -5.184  21.325  0.00  0.00    -0.297 N 
ATOM     15  H   ASP A   8      10.387  -5.118  20.531  0.00  0.00    +0.150 HD
BRANCH  14  16
ATOM     16  CA  ASP A   8      12.474  -5.242  20.974  0.00  0.00    +0.160 C 
BRANCH  16  17
ATOM     17  C   ASP A   8      12.978  -3.971  20.367  0.00  0.00    +0.241 C 
ATOM     18  N   THR A   9      14.287  -3.790  20.436  0.00  0.00    -0.295 N 
ATOM     19  H   THR A   9      14.878  -4.427  21.008  0.00  0.00    +0.150 HD
ATOM     20  O   ASP A   8      12.213  -3.205  19.820  0.00  0.00    -0.273 OA
BRANCH  18  21
ATOM     21  CA  THR A   9      14.897  -2.673  19.691  0.00  0.00    +0.176 C 
BRANCH  21  22
ATOM     22  C   THR A   9      15.459  -3.096  18.351  0.00  0.00    +0.243 C 
ATOM     23  O   THR A   9      16.142  -4.102  18.260  0.00  0.00    -0.273 OA
ATOM     24  N   VAL A  10      15.140  -2.314  17.315  0.00  0.00    -0.298 N 
ATOM     25  H   VAL A  10      14.586  -1.449  17.478  0.00  0.00    +0.150 HD
BRANCH  24  26
ATOM     26  CA  VAL A  10      15.563  -2.660  15.937  0.00  0.00    +0.137 C 
BRANCH  26  27
ATOM     27  CB  VAL A  10      14.390  -3.166  15.062  0.00  0.00    +0.026 C 
ATOM     28  CG2 VAL A  10      13.597  -4.264  15.759  0.00  0.00    +0.002 C 
ATOM     29  CG1 VAL A  10      14.880  -3.752  13.728  0.00  0.00    +0.002 C 
ENDBRANCH  26  27
BRANCH  26  30
ATOM     30  C   VAL A  10      16.253  -1.513  15.212  0.00  0.00    +0.227 C 
ATOM     31  O   VAL A  10      15.727  -0.419  15.044  0.00  0.00    -0.286 OA
ENDBRANCH  26  30
ENDBRANCH  24  26
ENDBRANCH  21  22
BRANCH  21  32
ATOM     32  CB  THR A   9      16.010  -2.046  20.538  0.00  0.00    +0.137 C 
ATOM     33  CG2 THR A   9      16.883  -0.997  19.836  0.00  0.00    +0.034 C 
BRANCH  32  34
ATOM     34  OG1 THR A   9      15.374  -1.447  21.675  0.00  0.00    -0.382 OA
ATOM     35  HG1 THR A   9      14.891  -2.144  22.187  0.00  0.00    +0.210 HD
ENDBRANCH  32  34
ENDBRANCH  21  32
ENDBRANCH  18  21
ENDBRANCH  16  17
BRANCH  16  36
ATOM     36  CB  ASP A   8      12.649  -6.262  19.864  0.00  0.00    +0.143 C 
BRANCH  36  37
ATOM     37  CG  ASP A   8      12.393  -7.661  20.403  0.00  0.00    +0.367 C 
ATOM     38  OD2 ASP A   8      12.883  -7.998  21.502  0.00  0.00    -0.246 OA
ATOM     39  OD1 ASP A   8      11.673  -8.406  19.719  0.00  0.00    -0.246 OA
ENDBRANCH  36  37
ENDBRANCH  16  36
ENDBRANCH  14  16
ENDBRANCH  11  12
BRANCH  11  40
ATOM     40  CB  ASP A   7       8.808  -6.856  22.450  0.00  0.00    +0.143 C 
BRANCH  40  41
ATOM     41  CG  ASP A   7       7.447  -7.350  22.795  0.00  0.00    +0.367 C 
ATOM     42  OD2 ASP A   7       6.593  -6.538  23.178  0.00  0.00    -0.246 OA
ATOM     43  OD1 ASP A   7       7.258  -8.563  22.708  0.00  0.00    -0.246 OA
ENDBRANCH  40  41
ENDBRANCH  11  40
ENDBRANCH   9  11
ENDBRANCH   5   7
ENDBRANCH   2   5
BRANCH   1  44
ATOM     44  CA  GLY A   5       4.467  -0.953  20.939  0.00  0.00    +0.176 C 
BRANCH  44  47
ATOM     45  C   THR A   4       5.301   0.320  22.810  0.00  0.00    +0.243 C 
ATOM     46  O   THR A   4       5.006  -0.590  23.567  0.00  0.00    -0.273 OA
ATOM     47  N   GLY A   5       5.048   0.270  21.505  0.00  0.00    -0.295 N 
ATOM     48  H   GLY A   5       5.259   1.085  20.895  0.00  0.00    +0.150 HD
BRANCH  45  49
ATOM     49  CA  THR A   4       6.010   1.573  23.265  0.00  0.00    +0.176 C 
BRANCH  49  51
ATOM     50  C   ASP A   3       7.651   2.011  21.548  0.00  0.00    +0.241 C 
ATOM     51  N   THR A   4       6.589   2.439  22.224  0.00  0.00    -0.295 N 
ATOM     52  H   THR A   4       6.174   3.371  22.021  0.00  0.00    +0.150 HD
ATOM     53  O   ASP A   3       8.110   0.894  21.717  0.00  0.00    -0.273 OA
BRANCH  50  54
ATOM     54  CA  ASP A   3       8.141   2.990  20.478  0.00  0.00    +0.160 C 
BRANCH  54  56
ATOM     55  C   LEU A   2       9.255   5.077  20.700  0.00  0.00    +0.241 C 
ATOM     56  N   ASP A   3       9.305   3.769  20.830  0.00  0.00    -0.297 N 
ATOM     57  H   ASP A   3      10.167   3.304  21.180  0.00  0.00    +0.150 HD
ATOM     58  O   LEU A   2       8.221   5.683  20.471  0.00  0.00    -0.273 OA
BRANCH  55  59
ATOM     59  CA  LEU A   2      10.607   5.779  20.803  0.00  0.00    +0.149 C 
BRANCH  59  61
ATOM     60  C   LEU A   1      11.460   5.648  18.572  0.00  0.00    +0.238 C 
ATOM     61  N   LEU A   2      10.995   6.435  19.543  0.00  0.00    -0.297 N 
ATOM     62  H   LEU A   2      10.910   7.464  19.416  0.00  0.00    +0.150 HD
ATOM     63  O   LEU A   1      11.707   4.457  18.735  0.00  0.00    -0.274 OA
BRANCH  60  64
ATOM     64  CA  LEU A   1      11.674   6.300  17.222  0.00  0.00    +0.145 C 
BRANCH  64  65
ATOM     65  N   LEU A   1      13.080   6.144  16.815  0.00  0.00    -0.238 NA
ATOM     66  H   LEU A   1      13.375   5.270  16.335  0.00  0.00    +0.142 HD
ENDBRANCH  64  65
BRANCH  64  67
ATOM     67  CB  LEU A   1      10.869   5.542  16.158  0.00  0.00    +0.026 C 
BRANCH  67  68
ATOM     68  CG  LEU A   1       9.368   5.586  16.293  0.00  0.00    +0.002 C 
ATOM     69  CD2 LEU A   1       8.768   6.961  16.010  0.00  0.00    +0.000 C 
ATOM     70  CD1 LEU A   1       8.820   4.474  15.415  0.00  0.00    +0.000 C 
ENDBRANCH  67  68
ENDBRANCH  64  67
ENDBRANCH  60  64
ENDBRANCH  59  61
BRANCH  59  71
ATOM     71  CB  LEU A   2      10.524   6.809  21.937  0.00  0.00    +0.029 C 
BRANCH  71  72
ATOM     72  CG  LEU A   2      11.753   7.695  22.093  0.00  0.00    +0.002 C 
ATOM     73  CD2 LEU A   2      11.355   8.792  23.062  0.00  0.00    +0.000 C 
ATOM     74  CD1 LEU A   2      13.036   6.922  22.438  0.00  0.00    +0.000 C 
ENDBRANCH  71  72
ENDBRANCH  59  71
ENDBRANCH  55  59
ENDBRANCH  54  56
BRANCH  54  75
ATOM     75  CB  ASP A   3       8.557   2.249  19.227  0.00  0.00    +0.143 C 
BRANCH  75  76
ATOM     76  CG  ASP A   3       7.449   1.434  18.588  0.00  0.00    +0.367 C 
ATOM     77  OD2 ASP A   3       6.278   1.497  19.011  0.00  0.00    -0.246 OA
ATOM     78  OD1 ASP A   3       7.797   0.724  17.639  0.00  0.00    -0.246 OA
ENDBRANCH  75  76
ENDBRANCH  54  75
ENDBRANCH  50  54
ENDBRANCH  49  51
BRANCH  49  79
ATOM     79  CB  THR A   4       5.053   2.371  24.124  0.00  0.00    +0.137 C 
ATOM     80  CG2 THR A   4       5.788   3.565  24.670  0.00  0.00    +0.034 C 
BRANCH  79  81
ATOM     81  OG1 THR A   4       3.975   2.824  23.319  0.00  0.00    -0.382 OA
ATOM     82  HG1 THR A   4       3.504   2.044  22.931  0.00  0.00    +0.210 HD
ENDBRANCH  79  81
ENDBRANCH  49  79
ENDBRANCH  45  49
ENDBRANCH  44  47
ENDBRANCH   1  44
TORSDOF 35
REMARK  Name = ../refined-set-2016/1hvl/1hvl_pocket.pdb
REMARK  228 active torsions:
REMARK  status: ('A' for Active; 'I' for Inactive)
REMARK    1  A    between atoms: _1  and  _3
REMARK    2  A    between atoms: _3  and  _4
REMARK    3  A    between atoms: _3  and  _6
REMARK    4  A    between atoms: _6  and  _7
REMARK    5  A    between atoms: _7  and  _8
REMARK    6  A    between atoms: _8  and  _9
REMARK    7  A    between atoms: _19  and  _20
REMARK    8  A    between atoms: _25  and  _27
REMARK    9  A    between atoms: _27  and  _28
REMARK   10  A    between atoms: _27  and  _30
REMARK   11  A    between atoms: _30  and  _31
REMARK   12  A    between atoms: _34  and  _36
REMARK   13  A    between atoms: _36  and  _37
REMARK   14  A    between atoms: _36  and  _39
REMARK   15  A    between atoms: _39  and  _40
REMARK   16  A    between atoms: _43  and  _45
REMARK   17  A    between atoms: _45  and  _46
REMARK   18  A    between atoms: _45  and  _48
REMARK   19  A    between atoms: _48  and  _49
REMARK   20  A    between atoms: _52  and  _54
REMARK   21  A    between atoms: _54  and  _55
REMARK   22  A    between atoms: _54  and  _57
REMARK   23  A    between atoms: _57  and  _58
REMARK   24  A    between atoms: _61  and  _63
REMARK   25  A    between atoms: _63  and  _64
REMARK   26  A    between atoms: _63  and  _66
REMARK   27  A    between atoms: _66  and  _67
REMARK   28  A    between atoms: _70  and  _72
REMARK   29  A    between atoms: _72  and  _73
REMARK   30  A    between atoms: _75  and  _77
REMARK   31  A    between atoms: _77  and  _78
REMARK   32  A    between atoms: _81  and  _83
REMARK   33  A    between atoms: _83  and  _84
REMARK   34  A    between atoms: _83  and  _86
REMARK   35  A    between atoms: _86  and  _87
REMARK   36  A    between atoms: _90  and  _92
REMARK   37  A    between atoms: _92  and  _93
REMARK   38  A    between atoms: _92  and  _95
REMARK   39  A    between atoms: _95  and  _96
REMARK   40  A    between atoms: _99  and  _101
REMARK   41  A    between atoms: _101  and  _102
REMARK   42  A    between atoms: _101  and  _104
REMARK   43  A    between atoms: _104  and  _105
REMARK   44  A    between atoms: _108  and  _110
REMARK   45  A    between atoms: _110  and  _111
REMARK   46  A    between atoms: _110  and  _113
REMARK   47  A    between atoms: _116  and  _118
REMARK   48  A    between atoms: _118  and  _119
REMARK   49  A    between atoms: _118  and  _121
REMARK   50  A    between atoms: _121  and  _122
REMARK   51  A    between atoms: _122  and  _123
REMARK   52  A    between atoms: _123  and  _124
REMARK   53  A    between atoms: _124  and  _125
REMARK   54  A    between atoms: _129  and  _131
REMARK   55  A    between atoms: _131  and  _132
REMARK   56  A    between atoms: _131  and  _134
REMARK   57  A    between atoms: _134  and  _135
REMARK   58  A    between atoms: _138  and  _140
REMARK   59  A    between atoms: _140  and  _141
REMARK   60  A    between atoms: _143  and  _145
REMARK   61  A    between atoms: _145  and  _146
REMARK   62  A    between atoms: _148  and  _150
REMARK   63  A    between atoms: _150  and  _151
REMARK   64  A    between atoms: _150  and  _153
REMARK   65  A    between atoms: _153  and  _154
REMARK   66  A    between atoms: _157  and  _159
REMARK   67  A    between atoms: _159  and  _160
REMARK   68  A    between atoms: _162  and  _164
REMARK   69  A    between atoms: _164  and  _165
REMARK   70  A    between atoms: _167  and  _169
REMARK   71  A    between atoms: _169  and  _170
REMARK   72  A    between atoms: _169  and  _172
REMARK   73  A    between atoms: _172  and  _173
REMARK   74  A    between atoms: _179  and  _181
REMARK   75  A    between atoms: _181  and  _182
REMARK   76  A    between atoms: _181  and  _184
REMARK   77  A    between atoms: _184  and  _185
REMARK   78  A    between atoms: _188  and  _190
REMARK   79  A    between atoms: _190  and  _191
REMARK   80  A    between atoms: _190  and  _193
REMARK   81  A    between atoms: _193  and  _194
REMARK   82  A    between atoms: _198  and  _199
REMARK   83  A    between atoms: _204  and  _206
REMARK   84  A    between atoms: _206  and  _207
REMARK   85  A    between atoms: _206  and  _209
REMARK   86  A    between atoms: _209  and  _210
REMARK   87  A    between atoms: _214  and  _215
REMARK   88  A    between atoms: _220  and  _222
REMARK   89  A    between atoms: _222  and  _223
REMARK   90  A    between atoms: _222  and  _225
REMARK   91  A    between atoms: _228  and  _230
REMARK   92  A    between atoms: _230  and  _231
REMARK   93  A    between atoms: _230  and  _233
REMARK   94  A    between atoms: _233  and  _234
REMARK   95  A    between atoms: _239  and  _241
REMARK   96  A    between atoms: _241  and  _242
REMARK   97  A    between atoms: _241  and  _244
REMARK   98  A    between atoms: _244  and  _245
REMARK   99  A    between atoms: _248  and  _250
REMARK  100  A    between atoms: _250  and  _251
REMARK  101  A    between atoms: _250  and  _253
REMARK  102  A    between atoms: _253  and  _254
REMARK  103  A    between atoms: _257  and  _259
REMARK  104  A    between atoms: _259  and  _260
REMARK  105  A    between atoms: _262  and  _264
REMARK  106  A    between atoms: _264  and  _265
REMARK  107  A    between atoms: _264  and  _267
REMARK  108  A    between atoms: _267  and  _268
REMARK  109  A    between atoms: _268  and  _269
REMARK  110  A    between atoms: _269  and  _270
REMARK  111  A    between atoms: _279  and  _281
REMARK  112  A    between atoms: _281  and  _282
REMARK  113  A    between atoms: _281  and  _284
REMARK  114  A    between atoms: _284  and  _285
REMARK  115  A    between atoms: _285  and  _286
REMARK  116  A    between atoms: _286  and  _287
REMARK  117  A    between atoms: _297  and  _298
REMARK  118  A    between atoms: _303  and  _305
REMARK  119  A    between atoms: _305  and  _306
REMARK  120  A    between atoms: _305  and  _308
REMARK  121  A    between atoms: _308  and  _309
REMARK  122  A    between atoms: _312  and  _314
REMARK  123  A    between atoms: _314  and  _315
REMARK  124  A    between atoms: _314  and  _317
REMARK  125  A    between atoms: _317  and  _318
REMARK  126  A    between atoms: _321  and  _323
REMARK  127  A    between atoms: _323  and  _324
REMARK  128  A    between atoms: _323  and  _326
REMARK  129  A    between atoms: _326  and  _327
REMARK  130  A    between atoms: _330  and  _332
REMARK  131  A    between atoms: _332  and  _333
REMARK  132  A    between atoms: _332  and  _335
REMARK  133  A    between atoms: _335  and  _336
REMARK  134  A    between atoms: _339  and  _341
REMARK  135  A    between atoms: _341  and  _342
REMARK  136  A    between atoms: _341  and  _344
REMARK  137  A    between atoms: _344  and  _345
REMARK  138  A    between atoms: _348  and  _350
REMARK  139  A    between atoms: _350  and  _351
REMARK  140  A    between atoms: _353  and  _355
REMARK  141  A    between atoms: _355  and  _356
REMARK  142  A    between atoms: _359  and  _361
REMARK  143  A    between atoms: _361  and  _362
REMARK  144  A    between atoms: _361  and  _364
REMARK  145  A    between atoms: _364  and  _365
REMARK  146  A    between atoms: _368  and  _370
REMARK  147  A    between atoms: _370  and  _371
REMARK  148  A    between atoms: _370  and  _373
REMARK  149  A    between atoms: _373  and  _374
REMARK  150  A    between atoms: _377  and  _379
REMARK  151  A    between atoms: _379  and  _380
REMARK  152  A    between atoms: _379  and  _382
REMARK  153  A    between atoms: _382  and  _383
REMARK  154  A    between atoms: _386  and  _388
REMARK  155  A    between atoms: _388  and  _389
REMARK  156  A    between atoms: _388  and  _391
REMARK  157  A    between atoms: _394  and  _396
REMARK  158  A    between atoms: _396  and  _397
REMARK  159  A    between atoms: _396  and  _399
REMARK  160  A    between atoms: _399  and  _400
REMARK  161  A    between atoms: _400  and  _401
REMARK  162  A    between atoms: _401  and  _402
REMARK  163  A    between atoms: _402  and  _403
REMARK  164  A    between atoms: _407  and  _409
REMARK  165  A    between atoms: _409  and  _410
REMARK  166  A    between atoms: _409  and  _412
REMARK  167  A    between atoms: _412  and  _413
REMARK  168  A    between atoms: _413  and  _414
REMARK  169  A    between atoms: _416  and  _418
REMARK  170  A    between atoms: _418  and  _419
REMARK  171  A    between atoms: _418  and  _421
REMARK  172  A    between atoms: _421  and  _422
REMARK  173  A    between atoms: _425  and  _427
REMARK  174  A    between atoms: _427  and  _428
REMARK  175  A    between atoms: _430  and  _432
REMARK  176  A    between atoms: _432  and  _433
REMARK  177  A    between atoms: _435  and  _437
REMARK  178  A    between atoms: _437  and  _438
REMARK  179  A    between atoms: _437  and  _440
REMARK  180  A    between atoms: _440  and  _441
REMARK  181  A    between atoms: _444  and  _446
REMARK  182  A    between atoms: _446  and  _447
REMARK  183  A    between atoms: _449  and  _451
REMARK  184  A    between atoms: _451  and  _452
REMARK  185  A    between atoms: _454  and  _456
REMARK  186  A    between atoms: _456  and  _457
REMARK  187  A    between atoms: _456  and  _459
REMARK  188  A    between atoms: _459  and  _460
REMARK  189  A    between atoms: _466  and  _468
REMARK  190  A    between atoms: _468  and  _469
REMARK  191  A    between atoms: _468  and  _471
REMARK  192  A    between atoms: _471  and  _472
REMARK  193  A    between atoms: _475  and  _477
REMARK  194  A    between atoms: _477  and  _478
REMARK  195  A    between atoms: _477  and  _480
REMARK  196  A    between atoms: _483  and  _485
REMARK  197  A    between atoms: _485  and  _486
REMARK  198  A    between atoms: _485  and  _488
REMARK  199  A    between atoms: _488  and  _489
REMARK  200  A    between atoms: _493  and  _494
REMARK  201  A    between atoms: _499  and  _501
REMARK  202  A    between atoms: _501  and  _502
REMARK  203  A    between atoms: _501  and  _504
REMARK  204  A    between atoms: _504  and  _505
REMARK  205  A    between atoms: _509  and  _510
REMARK  206  A    between atoms: _515  and  _517
REMARK  207  A    between atoms: _517  and  _518
REMARK  208  A    between atoms: _517  and  _520
REMARK  209  A    between atoms: _523  and  _525
REMARK  210  A    between atoms: _525  and  _526
REMARK  211  A    between atoms: _525  and  _528
REMARK  212  A    between atoms: _528  and  _529
REMARK  213  A    between atoms: _534  and  _536
REMARK  214  A    between atoms: _536  and  _537
REMARK  215  A    between atoms: _536  and  _539
REMARK  216  A    between atoms: _539  and  _540
REMARK  217  A    between atoms: _543  and  _545
REMARK  218  A    between atoms: _545  and  _546
REMARK  219  A    between atoms: _545  and  _548
REMARK  220  A    between atoms: _548  and  _549
REMARK  221  A    between atoms: _552  and  _554
REMARK  222  A    between atoms: _554  and  _555
REMARK  223  A    between atoms: _557  and  _559
REMARK  224  A    between atoms: _559  and  _560
REMARK  225  A    between atoms: _559  and  _562
REMARK  226  A    between atoms: _562  and  _563
REMARK  227  A    between atoms: _563  and  _564
REMARK  228  A    between atoms: _564  and  _565
REMARK                            x       y       z     vdW  Elec       q    Type
REMARK                         _______ _______ _______ _____ _____    ______ ____
ROOT
ATOM      1  C   GLY A   5       4.074  -6.821  11.460  0.00  0.00    +0.243 C 
ATOM      2  N   ILE A   6       3.594  -5.652  11.116  0.00  0.00    -0.297 N 
ATOM      3  H   ILE A   6       4.087  -4.783  11.405  0.00  0.00    +0.150 HD
ATOM      4  O   GLY A   5       3.544  -7.855  11.110  0.00  0.00    -0.273 OA
ENDROOT
BRANCH   2   5
ATOM      5  CA  ILE A   6       2.358  -5.565  10.322  0.00  0.00    +0.149 C 
BRANCH   5   6
ATOM      6  C   ILE A   6       2.218  -6.501   9.109  0.00  0.00    +0.241 C 
ATOM      7  O   ILE A   6       1.278  -7.281   8.976  0.00  0.00    -0.273 OA
ATOM      8  N   GLY A   7       3.188  -6.395   8.209  0.00  0.00    -0.295 N 
ATOM      9  H   GLY A   7       4.033  -5.807   8.357  0.00  0.00    +0.150 HD
BRANCH   8  10
ATOM     10  CA  GLY A   7       2.965  -7.183   6.981  0.00  0.00    +0.176 C 
BRANCH  10  11
ATOM     11  C   GLY A   7       3.755  -8.502   6.864  0.00  0.00    +0.243 C 
ATOM     12  N   GLY A   8       4.168  -9.013   8.002  0.00  0.00    -0.295 N 
ATOM     13  H   GLY A   8       3.819  -8.666   8.918  0.00  0.00    +0.150 HD
ATOM     14  O   GLY A   7       4.042  -9.012   5.800  0.00  0.00    -0.273 OA
BRANCH  12  15
ATOM     15  CA  GLY A   8       5.139 -10.090   7.909  0.00  0.00    +0.176 C 
BRANCH  15  16
ATOM     16  C   GLY A   8       6.453  -9.949   8.683  0.00  0.00    +0.243 C 
ATOM     17  O   GLY A   8       6.653  -9.170   9.606  0.00  0.00    -0.273 OA
ATOM     18  N   PHE A   9       7.362 -10.816   8.297  0.00  0.00    -0.297 N 
ATOM     19  H   PHE A   9       7.213 -11.394   7.445  0.00  0.00    +0.150 HD
BRANCH  18  20
ATOM     20  CA  PHE A   9       8.590 -10.956   9.087  0.00  0.00    +0.153 C 
BRANCH  20  21
ATOM     21  C   PHE A   9       9.809 -10.481   8.341  0.00  0.00    +0.241 C 
ATOM     22  N   ILE A  10      10.754  -9.923   9.069  0.00  0.00    -0.298 N 
ATOM     23  H   ILE A  10      10.584  -9.599  10.042  0.00  0.00    +0.150 HD
ATOM     24  O   PHE A   9       9.942 -10.641   7.143  0.00  0.00    -0.273 OA
BRANCH  22  25
ATOM     25  CA  ILE A  10      12.067  -9.788   8.415  0.00  0.00    +0.137 C 
BRANCH  25  26
ATOM     26  C   ILE A  10      13.157 -10.518   9.166  0.00  0.00    +0.227 C 
ATOM     27  O   ILE A  10      13.043 -10.857  10.337  0.00  0.00    -0.286 OA
ENDBRANCH  25  26
BRANCH  25  28
ATOM     28  CB  ILE A  10      12.505  -8.328   8.312  0.00  0.00    +0.026 C 
ATOM     29  CG2 ILE A  10      11.583  -7.540   7.391  0.00  0.00    +0.002 C 
BRANCH  28  30
ATOM     30  CG1 ILE A  10      12.586  -7.663   9.683  0.00  0.00    +0.002 C 
ATOM     31  CD1 ILE A  10      13.107  -6.224   9.588  0.00  0.00    +0.000 C 
ENDBRANCH  28  30
ENDBRANCH  25  28
ENDBRANCH  22  25
ENDBRANCH  20  21
BRANCH  20  32
ATOM     32  CB  PHE A   9       8.849 -12.432   9.488  0.00  0.00    +0.055 C 
BRANCH  32  33
ATOM     33  CG  PHE A   9       7.874 -12.945  10.518  0.00  0.00    -0.020 A 
ATOM     34  CD2 PHE A   9       8.323 -13.170  11.824  0.00  0.00    -0.004 A 
ATOM     35  CE2 PHE A   9       7.400 -13.586  12.819  0.00  0.00    -0.000 A 
ATOM     36  CZ  PHE A   9       6.042 -13.772  12.487  0.00  0.00    -0.000 A 
ATOM     37  CE1 PHE A   9       5.607 -13.550  11.170  0.00  0.00    -0.000 A 
ATOM     38  CD1 PHE A   9       6.513 -13.141  10.188  0.00  0.00    -0.004 A 
ENDBRANCH  32  33
ENDBRANCH  20  32
ENDBRANCH  18  20
ENDBRANCH  15  16
ENDBRANCH  12  15
ENDBRANCH  10  11
ENDBRANCH   8  10
ENDBRANCH   5   6
BRANCH   5  39
ATOM     39  CB  ILE A   6       2.179  -4.057   9.954  0.00  0.00    +0.027 C 
ATOM     40  CG2 ILE A   6       1.459  -3.709   8.661  0.00  0.00    +0.002 C 
BRANCH  39  41
ATOM     41  CG1 ILE A   6       1.428  -3.342  11.073  0.00  0.00    +0.002 C 
ATOM     42  CD1 ILE A   6       0.019  -3.885  11.299  0.00  0.00    +0.000 C 
ENDBRANCH  39  41
ENDBRANCH   5  39
ENDBRANCH   2   5
BRANCH   1  43
ATOM     43  CA  GLY A   5       5.342  -6.838  12.284  0.00  0.00    +0.176 C 
BRANCH  43  46
ATOM     44  C   GLY A   4       6.875  -8.454  13.021  0.00  0.00    +0.243 C 
ATOM     45  O   GLY A   4       7.109  -7.775  14.002  0.00  0.00    -0.273 OA
ATOM     46  N   GLY A   5       6.098  -8.073  12.077  0.00  0.00    -0.295 N 
ATOM     47  H   GLY A   5       6.008  -8.620  11.197  0.00  0.00    +0.150 HD
BRANCH  44  48
ATOM     48  CA  GLY A   4       7.444  -9.816  12.800  0.00  0.00    +0.176 C 
BRANCH  48  50
ATOM     49  C   ILE A   3       9.800 -10.078  12.928  0.00  0.00    +0.241 C 
ATOM     50  N   GLY A   4       8.643 -10.064  13.566  0.00  0.00    -0.295 N 
ATOM     51  H   GLY A   4       8.597 -10.227  14.592  0.00  0.00    +0.150 HD
ATOM     52  O   ILE A   3       9.925  -9.835  11.740  0.00  0.00    -0.273 OA
BRANCH  49  53
ATOM     53  CA  ILE A   3      10.956 -10.513  13.813  0.00  0.00    +0.149 C 
BRANCH  53  56
ATOM     54  C   MET A   2      12.251 -12.537  13.551  0.00  0.00    +0.241 C 
ATOM     55  O   MET A   2      11.764 -13.024  14.564  0.00  0.00    -0.273 OA
ATOM     56  N   ILE A   3      11.994 -11.293  13.123  0.00  0.00    -0.297 N 
ATOM     57  H   ILE A   3      12.517 -10.888  12.320  0.00  0.00    +0.150 HD
BRANCH  54  58
ATOM     58  CA  MET A   2      13.242 -13.317  12.698  0.00  0.00    +0.149 C 
BRANCH  58  60
ATOM     59  C   LYS A   1      15.605 -13.452  13.211  0.00  0.00    +0.238 C 
ATOM     60  N   MET A   2      14.371 -13.931  13.414  0.00  0.00    -0.297 N 
ATOM     61  H   MET A   2      14.213 -14.725  14.067  0.00  0.00    +0.150 HD
ATOM     62  O   LYS A   1      15.886 -12.694  12.288  0.00  0.00    -0.274 OA
BRANCH  59  63
ATOM     63  CA  LYS A   1      16.656 -13.947  14.213  0.00  0.00    +0.145 C 
BRANCH  63  64
ATOM     64  N   LYS A   1      17.992 -13.921  13.643  0.00  0.00    -0.238 NA
ATOM     65  H   LYS A   1      18.288 -13.202  12.952  0.00  0.00    +0.142 HD
ENDBRANCH  63  64
BRANCH  63  66
ATOM     66  CB  LYS A   1      16.688 -13.103  15.496  0.00  0.00    +0.026 C 
BRANCH  66  67
ATOM     67  CG  LYS A   1      15.516 -13.368  16.427  0.00  0.00    -0.000 C 
BRANCH  67  68
ATOM     68  CD  LYS A   1      15.422 -12.246  17.450  0.00  0.00    -0.024 C 
BRANCH  68  69
ATOM     69  CE  LYS A   1      14.474 -12.587  18.596  0.00  0.00    -0.086 C 
BRANCH  69  70
ATOM     70  NZ  LYS A   1      14.639 -11.551  19.630  0.00  0.00    +0.380 N 
ATOM     71  HZ1 LYS A   1      14.004 -11.755  20.428  0.00  0.00    -0.089 HD
ATOM     72  HZ2 LYS A   1      15.625 -11.548  19.962  0.00  0.00    -0.089 HD
ATOM     73  HZ3 LYS A   1      14.404 -10.621  19.228  0.00  0.00    -0.089 HD
ENDBRANCH  69  70
ENDBRANCH  68  69
ENDBRANCH  67  68
ENDBRANCH  66  67
ENDBRANCH  63  66
ENDBRANCH  59  63
ENDBRANCH  58  60
BRANCH  58  74
ATOM     74  CB  MET A   2      12.533 -14.375  11.868  0.00  0.00    +0.041 C 
BRANCH  74  75
ATOM     75  CG  MET A   2      13.221 -14.141  10.538  0.00  0.00    +0.060 C 
BRANCH  75  76
ATOM     76  SD  MET A   2      13.129 -15.593   9.596  0.00  0.00    -0.139 S 
ATOM     77  CE  MET A   2      11.580 -15.178   8.775  0.00  0.00    +0.069 C 
ENDBRANCH  75  76
ENDBRANCH  74  75
ENDBRANCH  58  74
ENDBRANCH  54  58
ENDBRANCH  53  56
BRANCH  53  78
ATOM     78  CB  ILE A   3      11.471  -9.291  14.555  0.00  0.00    +0.027 C 
ATOM     79  CG2 ILE A   3      11.980  -9.618  15.934  0.00  0.00    +0.002 C 
BRANCH  78  80
ATOM     80  CG1 ILE A   3      12.481  -8.473  13.818  0.00  0.00    +0.002 C 
ATOM     81  CD1 ILE A   3      11.819  -7.213  13.275  0.00  0.00    +0.000 C 
ENDBRANCH  78  80
ENDBRANCH  53  78
ENDBRANCH  49  53
ENDBRANCH  48  50
ENDBRANCH  44  48
ENDBRANCH  43  46
ENDBRANCH   1  43
TORSDOF 36
REMARK  Name = ../refined-set-2016/1hvl/1hvl_pocket.pdb
REMARK  228 active torsions:
REMARK  status: ('A' for Active; 'I' for Inactive)
REMARK    1  A    between atoms: _1  and  _3
REMARK    2  A    between atoms: _3  and  _4
REMARK    3  A    between atoms: _3  and  _6
REMARK    4  A    between atoms: _6  and  _7
REMARK    5  A    between atoms: _7  and  _8
REMARK    6  A    between atoms: _8  and  _9
REMARK    7  A    between atoms: _19  and  _20
REMARK    8  A    between atoms: _25  and  _27
REMARK    9  A    between atoms: _27  and  _28
REMARK   10  A    between atoms: _27  and  _30
REMARK   11  A    between atoms: _30  and  _31
REMARK   12  A    between atoms: _34  and  _36
REMARK   13  A    between atoms: _36  and  _37
REMARK   14  A    between atoms: _36  and  _39
REMARK   15  A    between atoms: _39  and  _40
REMARK   16  A    between atoms: _43  and  _45
REMARK   17  A    between atoms: _45  and  _46
REMARK   18  A    between atoms: _45  and  _48
REMARK   19  A    between atoms: _48  and  _49
REMARK   20  A    between atoms: _52  and  _54
REMARK   21  A    between atoms: _54  and  _55
REMARK   22  A    between atoms: _54  and  _57
REMARK   23  A    between atoms: _57  and  _58
REMARK   24  A    between atoms: _61  and  _63
REMARK   25  A    between atoms: _63  and  _64
REMARK   26  A    between atoms: _63  and  _66
REMARK   27  A    between atoms: _66  and  _67
REMARK   28  A    between atoms: _70  and  _72
REMARK   29  A    between atoms: _72  and  _73
REMARK   30  A    between atoms: _75  and  _77
REMARK   31  A    between atoms: _77  and  _78
REMARK   32  A    between atoms: _81  and  _83
REMARK   33  A    between atoms: _83  and  _84
REMARK   34  A    between atoms: _83  and  _86
REMARK   35  A    between atoms: _86  and  _87
REMARK   36  A    between atoms: _90  and  _92
REMARK   37  A    between atoms: _92  and  _93
REMARK   38  A    between atoms: _92  and  _95
REMARK   39  A    between atoms: _95  and  _96
REMARK   40  A    between atoms: _99  and  _101
REMARK   41  A    between atoms: _101  and  _102
REMARK   42  A    between atoms: _101  and  _104
REMARK   43  A    between atoms: _104  and  _105
REMARK   44  A    between atoms: _108  and  _110
REMARK   45  A    between atoms: _110  and  _111
REMARK   46  A    between atoms: _110  and  _113
REMARK   47  A    between atoms: _116  and  _118
REMARK   48  A    between atoms: _118  and  _119
REMARK   49  A    between atoms: _118  and  _121
REMARK   50  A    between atoms: _121  and  _122
REMARK   51  A    between atoms: _122  and  _123
REMARK   52  A    between atoms: _123  and  _124
REMARK   53  A    between atoms: _124  and  _125
REMARK   54  A    between atoms: _129  and  _131
REMARK   55  A    between atoms: _131  and  _132
REMARK   56  A    between atoms: _131  and  _134
REMARK   57  A    between atoms: _134  and  _135
REMARK   58  A    between atoms: _138  and  _140
REMARK   59  A    between atoms: _140  and  _141
REMARK   60  A    between atoms: _143  and  _145
REMARK   61  A    between atoms: _145  and  _146
REMARK   62  A    between atoms: _148  and  _150
REMARK   63  A    between atoms: _150  and  _151
REMARK   64  A    between atoms: _150  and  _153
REMARK   65  A    between atoms: _153  and  _154
REMARK   66  A    between atoms: _157  and  _159
REMARK   67  A    between atoms: _159  and  _160
REMARK   68  A    between atoms: _162  and  _164
REMARK   69  A    between atoms: _164  and  _165
REMARK   70  A    between atoms: _167  and  _169
REMARK   71  A    between atoms: _169  and  _170
REMARK   72  A    between atoms: _169  and  _172
REMARK   73  A    between atoms: _172  and  _173
REMARK   74  A    between atoms: _179  and  _181
REMARK   75  A    between atoms: _181  and  _182
REMARK   76  A    between atoms: _181  and  _184
REMARK   77  A    between atoms: _184  and  _185
REMARK   78  A    between atoms: _188  and  _190
REMARK   79  A    between atoms: _190  and  _191
REMARK   80  A    between atoms: _190  and  _193
REMARK   81  A    between atoms: _193  and  _194
REMARK   82  A    between atoms: _198  and  _199
REMARK   83  A    between atoms: _204  and  _206
REMARK   84  A    between atoms: _206  and  _207
REMARK   85  A    between atoms: _206  and  _209
REMARK   86  A    between atoms: _209  and  _210
REMARK   87  A    between atoms: _214  and  _215
REMARK   88  A    between atoms: _220  and  _222
REMARK   89  A    between atoms: _222  and  _223
REMARK   90  A    between atoms: _222  and  _225
REMARK   91  A    between atoms: _228  and  _230
REMARK   92  A    between atoms: _230  and  _231
REMARK   93  A    between atoms: _230  and  _233
REMARK   94  A    between atoms: _233  and  _234
REMARK   95  A    between atoms: _239  and  _241
REMARK   96  A    between atoms: _241  and  _242
REMARK   97  A    between atoms: _241  and  _244
REMARK   98  A    between atoms: _244  and  _245
REMARK   99  A    between atoms: _248  and  _250
REMARK  100  A    between atoms: _250  and  _251
REMARK  101  A    between atoms: _250  and  _253
REMARK  102  A    between atoms: _253  and  _254
REMARK  103  A    between atoms: _257  and  _259
REMARK  104  A    between atoms: _259  and  _260
REMARK  105  A    between atoms: _262  and  _264
REMARK  106  A    between atoms: _264  and  _265
REMARK  107  A    between atoms: _264  and  _267
REMARK  108  A    between atoms: _267  and  _268
REMARK  109  A    between atoms: _268  and  _269
REMARK  110  A    between atoms: _269  and  _270
REMARK  111  A    between atoms: _279  and  _281
REMARK  112  A    between atoms: _281  and  _282
REMARK  113  A    between atoms: _281  and  _284
REMARK  114  A    between atoms: _284  and  _285
REMARK  115  A    between atoms: _285  and  _286
REMARK  116  A    between atoms: _286  and  _287
REMARK  117  A    between atoms: _297  and  _298
REMARK  118  A    between atoms: _303  and  _305
REMARK  119  A    between atoms: _305  and  _306
REMARK  120  A    between atoms: _305  and  _308
REMARK  121  A    between atoms: _308  and  _309
REMARK  122  A    between atoms: _312  and  _314
REMARK  123  A    between atoms: _314  and  _315
REMARK  124  A    between atoms: _314  and  _317
REMARK  125  A    between atoms: _317  and  _318
REMARK  126  A    between atoms: _321  and  _323
REMARK  127  A    between atoms: _323  and  _324
REMARK  128  A    between atoms: _323  and  _326
REMARK  129  A    between atoms: _326  and  _327
REMARK  130  A    between atoms: _330  and  _332
REMARK  131  A    between atoms: _332  and  _333
REMARK  132  A    between atoms: _332  and  _335
REMARK  133  A    between atoms: _335  and  _336
REMARK  134  A    between atoms: _339  and  _341
REMARK  135  A    between atoms: _341  and  _342
REMARK  136  A    between atoms: _341  and  _344
REMARK  137  A    between atoms: _344  and  _345
REMARK  138  A    between atoms: _348  and  _350
REMARK  139  A    between atoms: _350  and  _351
REMARK  140  A    between atoms: _353  and  _355
REMARK  141  A    between atoms: _355  and  _356
REMARK  142  A    between atoms: _359  and  _361
REMARK  143  A    between atoms: _361  and  _362
REMARK  144  A    between atoms: _361  and  _364
REMARK  145  A    between atoms: _364  and  _365
REMARK  146  A    between atoms: _368  and  _370
REMARK  147  A    between atoms: _370  and  _371
REMARK  148  A    between atoms: _370  and  _373
REMARK  149  A    between atoms: _373  and  _374
REMARK  150  A    between atoms: _377  and  _379
REMARK  151  A    between atoms: _379  and  _380
REMARK  152  A    between atoms: _379  and  _382
REMARK  153  A    between atoms: _382  and  _383
REMARK  154  A    between atoms: _386  and  _388
REMARK  155  A    between atoms: _388  and  _389
REMARK  156  A    between atoms: _388  and  _391
REMARK  157  A    between atoms: _394  and  _396
REMARK  158  A    between atoms: _396  and  _397
REMARK  159  A    between atoms: _396  and  _399
REMARK  160  A    between atoms: _399  and  _400
REMARK  161  A    between atoms: _400  and  _401
REMARK  162  A    between atoms: _401  and  _402
REMARK  163  A    between atoms: _402  and  _403
REMARK  164  A    between atoms: _407  and  _409
REMARK  165  A    between atoms: _409  and  _410
REMARK  166  A    between atoms: _409  and  _412
REMARK  167  A    between atoms: _412  and  _413
REMARK  168  A    between atoms: _413  and  _414
REMARK  169  A    between atoms: _416  and  _418
REMARK  170  A    between atoms: _418  and  _419
REMARK  171  A    between atoms: _418  and  _421
REMARK  172  A    between atoms: _421  and  _422
REMARK  173  A    between atoms: _425  and  _427
REMARK  174  A    between atoms: _427  and  _428
REMARK  175  A    between atoms: _430  and  _432
REMARK  176  A    between atoms: _432  and  _433
REMARK  177  A    between atoms: _435  and  _437
REMARK  178  A    between atoms: _437  and  _438
REMARK  179  A    between atoms: _437  and  _440
REMARK  180  A    between atoms: _440  and  _441
REMARK  181  A    between atoms: _444  and  _446
REMARK  182  A    between atoms: _446  and  _447
REMARK  183  A    between atoms: _449  and  _451
REMARK  184  A    between atoms: _451  and  _452
REMARK  185  A    between atoms: _454  and  _456
REMARK  186  A    between atoms: _456  and  _457
REMARK  187  A    between atoms: _456  and  _459
REMARK  188  A    between atoms: _459  and  _460
REMARK  189  A    between atoms: _466  and  _468
REMARK  190  A    between atoms: _468  and  _469
REMARK  191  A    between atoms: _468  and  _471
REMARK  192  A    between atoms: _471  and  _472
REMARK  193  A    between atoms: _475  and  _477
REMARK  194  A    between atoms: _477  and  _478
REMARK  195  A    between atoms: _477  and  _480
REMARK  196  A    between atoms: _483  and  _485
REMARK  197  A    between atoms: _485  and  _486
REMARK  198  A    between atoms: _485  and  _488
REMARK  199  A    between atoms: _488  and  _489
REMARK  200  A    between atoms: _493  and  _494
REMARK  201  A    between atoms: _499  and  _501
REMARK  202  A    between atoms: _501  and  _502
REMARK  203  A    between atoms: _501  and  _504
REMARK  204  A    between atoms: _504  and  _505
REMARK  205  A    between atoms: _509  and  _510
REMARK  206  A    between atoms: _515  and  _517
REMARK  207  A    between atoms: _517  and  _518
REMARK  208  A    between atoms: _517  and  _520
REMARK  209  A    between atoms: _523  and  _525
REMARK  210  A    between atoms: _525  and  _526
REMARK  211  A    between atoms: _525  and  _528
REMARK  212  A    between atoms: _528  and  _529
REMARK  213  A    between atoms: _534  and  _536
REMARK  214  A    between atoms: _536  and  _537
REMARK  215  A    between atoms: _536  and  _539
REMARK  216  A    between atoms: _539  and  _540
REMARK  217  A    between atoms: _543  and  _545
REMARK  218  A    between atoms: _545  and  _546
REMARK  219  A    between atoms: _545  and  _548
REMARK  220  A    between atoms: _548  and  _549
REMARK  221  A    between atoms: _552  and  _554
REMARK  222  A    between atoms: _554  and  _555
REMARK  223  A    between atoms: _557  and  _559
REMARK  224  A    between atoms: _559  and  _560
REMARK  225  A    between atoms: _559  and  _562
REMARK  226  A    between atoms: _562  and  _563
REMARK  227  A    between atoms: _563  and  _564
REMARK  228  A    between atoms: _564  and  _565
REMARK                            x       y       z     vdW  Elec       q    Type
REMARK                         _______ _______ _______ _____ _____    ______ ____
ROOT
ATOM      1  CA  VAL A   1      17.712  -9.618  11.546  0.00  0.00    +0.133 C 
ENDROOT
BRANCH   1   2
ATOM      2  CB  VAL A   1      16.942  -8.773  12.610  0.00  0.00    +0.023 C 
ATOM      3  CG2 VAL A   1      16.224  -9.635  13.677  0.00  0.00    +0.002 C 
ATOM      4  CG1 VAL A   1      15.991  -7.788  11.933  0.00  0.00    +0.002 C 
ENDBRANCH   1   2
BRANCH   1   5
ATOM      5  N   VAL A   1      16.780 -10.514  10.825  0.00  0.00    -0.239 NA
ATOM      6  H   VAL A   1      16.418 -11.361  11.308  0.00  0.00    +0.142 HD
ENDBRANCH   1   5
BRANCH   1   7
ATOM      7  C   VAL A   1      18.876 -10.355  12.225  0.00  0.00    +0.224 C 
ATOM      8  O   VAL A   1      18.848 -11.559  12.461  0.00  0.00    -0.287 OA
ENDBRANCH   1   7
TORSDOF 3
REMARK  Name = ../refined-set-2016/1hvl/1hvl_pocket.pdb
REMARK  228 active torsions:
REMARK  status: ('A' for Active; 'I' for Inactive)
REMARK    1  A    between atoms: _1  and  _3
REMARK    2  A    between atoms: _3  and  _4
REMARK    3  A    between atoms: _3  and  _6
REMARK    4  A    between atoms: _6  and  _7
REMARK    5  A    between atoms: _7  and  _8
REMARK    6  A    between atoms: _8  and  _9
REMARK    7  A    between atoms: _19  and  _20
REMARK    8  A    between atoms: _25  and  _27
REMARK    9  A    between atoms: _27  and  _28
REMARK   10  A    between atoms: _27  and  _30
REMARK   11  A    between atoms: _30  and  _31
REMARK   12  A    between atoms: _34  and  _36
REMARK   13  A    between atoms: _36  and  _37
REMARK   14  A    between atoms: _36  and  _39
REMARK   15  A    between atoms: _39  and  _40
REMARK   16  A    between atoms: _43  and  _45
REMARK   17  A    between atoms: _45  and  _46
REMARK   18  A    between atoms: _45  and  _48
REMARK   19  A    between atoms: _48  and  _49
REMARK   20  A    between atoms: _52  and  _54
REMARK   21  A    between atoms: _54  and  _55
REMARK   22  A    between atoms: _54  and  _57
REMARK   23  A    between atoms: _57  and  _58
REMARK   24  A    between atoms: _61  and  _63
REMARK   25  A    between atoms: _63  and  _64
REMARK   26  A    between atoms: _63  and  _66
REMARK   27  A    between atoms: _66  and  _67
REMARK   28  A    between atoms: _70  and  _72
REMARK   29  A    between atoms: _72  and  _73
REMARK   30  A    between atoms: _75  and  _77
REMARK   31  A    between atoms: _77  and  _78
REMARK   32  A    between atoms: _81  and  _83
REMARK   33  A    between atoms: _83  and  _84
REMARK   34  A    between atoms: _83  and  _86
REMARK   35  A    between atoms: _86  and  _87
REMARK   36  A    between atoms: _90  and  _92
REMARK   37  A    between atoms: _92  and  _93
REMARK   38  A    between atoms: _92  and  _95
REMARK   39  A    between atoms: _95  and  _96
REMARK   40  A    between atoms: _99  and  _101
REMARK   41  A    between atoms: _101  and  _102
REMARK   42  A    between atoms: _101  and  _104
REMARK   43  A    between atoms: _104  and  _105
REMARK   44  A    between atoms: _108  and  _110
REMARK   45  A    between atoms: _110  and  _111
REMARK   46  A    between atoms: _110  and  _113
REMARK   47  A    between atoms: _116  and  _118
REMARK   48  A    between atoms: _118  and  _119
REMARK   49  A    between atoms: _118  and  _121
REMARK   50  A    between atoms: _121  and  _122
REMARK   51  A    between atoms: _122  and  _123
REMARK   52  A    between atoms: _123  and  _124
REMARK   53  A    between atoms: _124  and  _125
REMARK   54  A    between atoms: _129  and  _131
REMARK   55  A    between atoms: _131  and  _132
REMARK   56  A    between atoms: _131  and  _134
REMARK   57  A    between atoms: _134  and  _135
REMARK   58  A    between atoms: _138  and  _140
REMARK   59  A    between atoms: _140  and  _141
REMARK   60  A    between atoms: _143  and  _145
REMARK   61  A    between atoms: _145  and  _146
REMARK   62  A    between atoms: _148  and  _150
REMARK   63  A    between atoms: _150  and  _151
REMARK   64  A    between atoms: _150  and  _153
REMARK   65  A    between atoms: _153  and  _154
REMARK   66  A    between atoms: _157  and  _159
REMARK   67  A    between atoms: _159  and  _160
REMARK   68  A    between atoms: _162  and  _164
REMARK   69  A    between atoms: _164  and  _165
REMARK   70  A    between atoms: _167  and  _169
REMARK   71  A    between atoms: _169  and  _170
REMARK   72  A    between atoms: _169  and  _172
REMARK   73  A    between atoms: _172  and  _173
REMARK   74  A    between atoms: _179  and  _181
REMARK   75  A    between atoms: _181  and  _182
REMARK   76  A    between atoms: _181  and  _184
REMARK   77  A    between atoms: _184  and  _185
REMARK   78  A    between atoms: _188  and  _190
REMARK   79  A    between atoms: _190  and  _191
REMARK   80  A    between atoms: _190  and  _193
REMARK   81  A    between atoms: _193  and  _194
REMARK   82  A    between atoms: _198  and  _199
REMARK   83  A    between atoms: _204  and  _206
REMARK   84  A    between atoms: _206  and  _207
REMARK   85  A    between atoms: _206  and  _209
REMARK   86  A    between atoms: _209  and  _210
REMARK   87  A    between atoms: _214  and  _215
REMARK   88  A    between atoms: _220  and  _222
REMARK   89  A    between atoms: _222  and  _223
REMARK   90  A    between atoms: _222  and  _225
REMARK   91  A    between atoms: _228  and  _230
REMARK   92  A    between atoms: _230  and  _231
REMARK   93  A    between atoms: _230  and  _233
REMARK   94  A    between atoms: _233  and  _234
REMARK   95  A    between atoms: _239  and  _241
REMARK   96  A    between atoms: _241  and  _242
REMARK   97  A    between atoms: _241  and  _244
REMARK   98  A    between atoms: _244  and  _245
REMARK   99  A    between atoms: _248  and  _250
REMARK  100  A    between atoms: _250  and  _251
REMARK  101  A    between atoms: _250  and  _253
REMARK  102  A    between atoms: _253  and  _254
REMARK  103  A    between atoms: _257  and  _259
REMARK  104  A    between atoms: _259  and  _260
REMARK  105  A    between atoms: _262  and  _264
REMARK  106  A    between atoms: _264  and  _265
REMARK  107  A    between atoms: _264  and  _267
REMARK  108  A    between atoms: _267  and  _268
REMARK  109  A    between atoms: _268  and  _269
REMARK  110  A    between atoms: _269  and  _270
REMARK  111  A    between atoms: _279  and  _281
REMARK  112  A    between atoms: _281  and  _282
REMARK  113  A    between atoms: _281  and  _284
REMARK  114  A    between atoms: _284  and  _285
REMARK  115  A    between atoms: _285  and  _286
REMARK  116  A    between atoms: _286  and  _287
REMARK  117  A    between atoms: _297  and  _298
REMARK  118  A    between atoms: _303  and  _305
REMARK  119  A    between atoms: _305  and  _306
REMARK  120  A    between atoms: _305  and  _308
REMARK  121  A    between atoms: _308  and  _309
REMARK  122  A    between atoms: _312  and  _314
REMARK  123  A    between atoms: _314  and  _315
REMARK  124  A    between atoms: _314  and  _317
REMARK  125  A    between atoms: _317  and  _318
REMARK  126  A    between atoms: _321  and  _323
REMARK  127  A    between atoms: _323  and  _324
REMARK  128  A    between atoms: _323  and  _326
REMARK  129  A    between atoms: _326  and  _327
REMARK  130  A    between atoms: _330  and  _332
REMARK  131  A    between atoms: _332  and  _333
REMARK  132  A    between atoms: _332  and  _335
REMARK  133  A    between atoms: _335  and  _336
REMARK  134  A    between atoms: _339  and  _341
REMARK  135  A    between atoms: _341  and  _342
REMARK  136  A    between atoms: _341  and  _344
REMARK  137  A    between atoms: _344  and  _345
REMARK  138  A    between atoms: _348  and  _350
REMARK  139  A    between atoms: _350  and  _351
REMARK  140  A    between atoms: _353  and  _355
REMARK  141  A    between atoms: _355  and  _356
REMARK  142  A    between atoms: _359  and  _361
REMARK  143  A    between atoms: _361  and  _362
REMARK  144  A    between atoms: _361  and  _364
REMARK  145  A    between atoms: _364  and  _365
REMARK  146  A    between atoms: _368  and  _370
REMARK  147  A    between atoms: _370  and  _371
REMARK  148  A    between atoms: _370  and  _373
REMARK  149  A    between atoms: _373  and  _374
REMARK  150  A    between atoms: _377  and  _379
REMARK  151  A    between atoms: _379  and  _380
REMARK  152  A    between atoms: _379  and  _382
REMARK  153  A    between atoms: _382  and  _383
REMARK  154  A    between atoms: _386  and  _388
REMARK  155  A    between atoms: _388  and  _389
REMARK  156  A    between atoms: _388  and  _391
REMARK  157  A    between atoms: _394  and  _396
REMARK  158  A    between atoms: _396  and  _397
REMARK  159  A    between atoms: _396  and  _399
REMARK  160  A    between atoms: _399  and  _400
REMARK  161  A    between atoms: _400  and  _401
REMARK  162  A    between atoms: _401  and  _402
REMARK  163  A    between atoms: _402  and  _403
REMARK  164  A    between atoms: _407  and  _409
REMARK  165  A    between atoms: _409  and  _410
REMARK  166  A    between atoms: _409  and  _412
REMARK  167  A    between atoms: _412  and  _413
REMARK  168  A    between atoms: _413  and  _414
REMARK  169  A    between atoms: _416  and  _418
REMARK  170  A    between atoms: _418  and  _419
REMARK  171  A    between atoms: _418  and  _421
REMARK  172  A    between atoms: _421  and  _422
REMARK  173  A    between atoms: _425  and  _427
REMARK  174  A    between atoms: _427  and  _428
REMARK  175  A    between atoms: _430  and  _432
REMARK  176  A    between atoms: _432  and  _433
REMARK  177  A    between atoms: _435  and  _437
REMARK  178  A    between atoms: _437  and  _438
REMARK  179  A    between atoms: _437  and  _440
REMARK  180  A    between atoms: _440  and  _441
REMARK  181  A    between atoms: _444  and  _446
REMARK  182  A    between atoms: _446  and  _447
REMARK  183  A    between atoms: _449  and  _451
REMARK  184  A    between atoms: _451  and  _452
REMARK  185  A    between atoms: _454  and  _456
REMARK  186  A    between atoms: _456  and  _457
REMARK  187  A    between atoms: _456  and  _459
REMARK  188  A    between atoms: _459  and  _460
REMARK  189  A    between atoms: _466  and  _468
REMARK  190  A    between atoms: _468  and  _469
REMARK  191  A    between atoms: _468  and  _471
REMARK  192  A    between atoms: _471  and  _472
REMARK  193  A    between atoms: _475  and  _477
REMARK  194  A    between atoms: _477  and  _478
REMARK  195  A    between atoms: _477  and  _480
REMARK  196  A    between atoms: _483  and  _485
REMARK  197  A    between atoms: _485  and  _486
REMARK  198  A    between atoms: _485  and  _488
REMARK  199  A    between atoms: _488  and  _489
REMARK  200  A    between atoms: _493  and  _494
REMARK  201  A    between atoms: _499  and  _501
REMARK  202  A    between atoms: _501  and  _502
REMARK  203  A    between atoms: _501  and  _504
REMARK  204  A    between atoms: _504  and  _505
REMARK  205  A    between atoms: _509  and  _510
REMARK  206  A    between atoms: _515  and  _517
REMARK  207  A    between atoms: _517  and  _518
REMARK  208  A    between atoms: _517  and  _520
REMARK  209  A    between atoms: _523  and  _525
REMARK  210  A    between atoms: _525  and  _526
REMARK  211  A    between atoms: _525  and  _528
REMARK  212  A    between atoms: _528  and  _529
REMARK  213  A    between atoms: _534  and  _536
REMARK  214  A    between atoms: _536  and  _537
REMARK  215  A    between atoms: _536  and  _539
REMARK  216  A    between atoms: _539  and  _540
REMARK  217  A    between atoms: _543  and  _545
REMARK  218  A    between atoms: _545  and  _546
REMARK  219  A    between atoms: _545  and  _548
REMARK  220  A    between atoms: _548  and  _549
REMARK  221  A    between atoms: _552  and  _554
REMARK  222  A    between atoms: _554  and  _555
REMARK  223  A    between atoms: _557  and  _559
REMARK  224  A    between atoms: _559  and  _560
REMARK  225  A    between atoms: _559  and  _562
REMARK  226  A    between atoms: _562  and  _563
REMARK  227  A    between atoms: _563  and  _564
REMARK  228  A    between atoms: _564  and  _565
REMARK                            x       y       z     vdW  Elec       q    Type
REMARK                         _______ _______ _______ _____ _____    ______ ____
ROOT
ATOM      1  CA  LEU A   1      18.453  -6.354  16.468  0.00  0.00    +0.133 C 
ENDROOT
BRANCH   1   2
ATOM      2  N   LEU A   1      18.597  -5.644  17.737  0.00  0.00    -0.239 NA
ATOM      3  H   LEU A   1      17.848  -4.986  18.032  0.00  0.00    +0.142 HD
ENDBRANCH   1   2
BRANCH   1   4
ATOM      4  C   LEU A   1      18.765  -5.438  15.301  0.00  0.00    +0.224 C 
ATOM      5  O   LEU A   1      18.384  -4.277  15.255  0.00  0.00    -0.287 OA
ENDBRANCH   1   4
BRANCH   1   6
ATOM      6  CB  LEU A   1      17.014  -6.880  16.317  0.00  0.00    +0.025 C 
BRANCH   6   7
ATOM      7  CG  LEU A   1      16.362  -7.587  17.516  0.00  0.00    +0.002 C 
ATOM      8  CD2 LEU A   1      17.097  -8.835  17.931  0.00  0.00    +0.000 C 
ATOM      9  CD1 LEU A   1      14.974  -8.058  17.143  0.00  0.00    +0.000 C 
ENDBRANCH   6   7
ENDBRANCH   1   6
TORSDOF 4
REMARK  Name = ../refined-set-2016/1hvl/1hvl_pocket.pdb
REMARK  228 active torsions:
REMARK  status: ('A' for Active; 'I' for Inactive)
REMARK    1  A    between atoms: _1  and  _3
REMARK    2  A    between atoms: _3  and  _4
REMARK    3  A    between atoms: _3  and  _6
REMARK    4  A    between atoms: _6  and  _7
REMARK    5  A    between atoms: _7  and  _8
REMARK    6  A    between atoms: _8  and  _9
REMARK    7  A    between atoms: _19  and  _20
REMARK    8  A    between atoms: _25  and  _27
REMARK    9  A    between atoms: _27  and  _28
REMARK   10  A    between atoms: _27  and  _30
REMARK   11  A    between atoms: _30  and  _31
REMARK   12  A    between atoms: _34  and  _36
REMARK   13  A    between atoms: _36  and  _37
REMARK   14  A    between atoms: _36  and  _39
REMARK   15  A    between atoms: _39  and  _40
REMARK   16  A    between atoms: _43  and  _45
REMARK   17  A    between atoms: _45  and  _46
REMARK   18  A    between atoms: _45  and  _48
REMARK   19  A    between atoms: _48  and  _49
REMARK   20  A    between atoms: _52  and  _54
REMARK   21  A    between atoms: _54  and  _55
REMARK   22  A    between atoms: _54  and  _57
REMARK   23  A    between atoms: _57  and  _58
REMARK   24  A    between atoms: _61  and  _63
REMARK   25  A    between atoms: _63  and  _64
REMARK   26  A    between atoms: _63  and  _66
REMARK   27  A    between atoms: _66  and  _67
REMARK   28  A    between atoms: _70  and  _72
REMARK   29  A    between atoms: _72  and  _73
REMARK   30  A    between atoms: _75  and  _77
REMARK   31  A    between atoms: _77  and  _78
REMARK   32  A    between atoms: _81  and  _83
REMARK   33  A    between atoms: _83  and  _84
REMARK   34  A    between atoms: _83  and  _86
REMARK   35  A    between atoms: _86  and  _87
REMARK   36  A    between atoms: _90  and  _92
REMARK   37  A    between atoms: _92  and  _93
REMARK   38  A    between atoms: _92  and  _95
REMARK   39  A    between atoms: _95  and  _96
REMARK   40  A    between atoms: _99  and  _101
REMARK   41  A    between atoms: _101  and  _102
REMARK   42  A    between atoms: _101  and  _104
REMARK   43  A    between atoms: _104  and  _105
REMARK   44  A    between atoms: _108  and  _110
REMARK   45  A    between atoms: _110  and  _111
REMARK   46  A    between atoms: _110  and  _113
REMARK   47  A    between atoms: _116  and  _118
REMARK   48  A    between atoms: _118  and  _119
REMARK   49  A    between atoms: _118  and  _121
REMARK   50  A    between atoms: _121  and  _122
REMARK   51  A    between atoms: _122  and  _123
REMARK   52  A    between atoms: _123  and  _124
REMARK   53  A    between atoms: _124  and  _125
REMARK   54  A    between atoms: _129  and  _131
REMARK   55  A    between atoms: _131  and  _132
REMARK   56  A    between atoms: _131  and  _134
REMARK   57  A    between atoms: _134  and  _135
REMARK   58  A    between atoms: _138  and  _140
REMARK   59  A    between atoms: _140  and  _141
REMARK   60  A    between atoms: _143  and  _145
REMARK   61  A    between atoms: _145  and  _146
REMARK   62  A    between atoms: _148  and  _150
REMARK   63  A    between atoms: _150  and  _151
REMARK   64  A    between atoms: _150  and  _153
REMARK   65  A    between atoms: _153  and  _154
REMARK   66  A    between atoms: _157  and  _159
REMARK   67  A    between atoms: _159  and  _160
REMARK   68  A    between atoms: _162  and  _164
REMARK   69  A    between atoms: _164  and  _165
REMARK   70  A    between atoms: _167  and  _169
REMARK   71  A    between atoms: _169  and  _170
REMARK   72  A    between atoms: _169  and  _172
REMARK   73  A    between atoms: _172  and  _173
REMARK   74  A    between atoms: _179  and  _181
REMARK   75  A    between atoms: _181  and  _182
REMARK   76  A    between atoms: _181  and  _184
REMARK   77  A    between atoms: _184  and  _185
REMARK   78  A    between atoms: _188  and  _190
REMARK   79  A    between atoms: _190  and  _191
REMARK   80  A    between atoms: _190  and  _193
REMARK   81  A    between atoms: _193  and  _194
REMARK   82  A    between atoms: _198  and  _199
REMARK   83  A    between atoms: _204  and  _206
REMARK   84  A    between atoms: _206  and  _207
REMARK   85  A    between atoms: _206  and  _209
REMARK   86  A    between atoms: _209  and  _210
REMARK   87  A    between atoms: _214  and  _215
REMARK   88  A    between atoms: _220  and  _222
REMARK   89  A    between atoms: _222  and  _223
REMARK   90  A    between atoms: _222  and  _225
REMARK   91  A    between atoms: _228  and  _230
REMARK   92  A    between atoms: _230  and  _231
REMARK   93  A    between atoms: _230  and  _233
REMARK   94  A    between atoms: _233  and  _234
REMARK   95  A    between atoms: _239  and  _241
REMARK   96  A    between atoms: _241  and  _242
REMARK   97  A    between atoms: _241  and  _244
REMARK   98  A    between atoms: _244  and  _245
REMARK   99  A    between atoms: _248  and  _250
REMARK  100  A    between atoms: _250  and  _251
REMARK  101  A    between atoms: _250  and  _253
REMARK  102  A    between atoms: _253  and  _254
REMARK  103  A    between atoms: _257  and  _259
REMARK  104  A    between atoms: _259  and  _260
REMARK  105  A    between atoms: _262  and  _264
REMARK  106  A    between atoms: _264  and  _265
REMARK  107  A    between atoms: _264  and  _267
REMARK  108  A    between atoms: _267  and  _268
REMARK  109  A    between atoms: _268  and  _269
REMARK  110  A    between atoms: _269  and  _270
REMARK  111  A    between atoms: _279  and  _281
REMARK  112  A    between atoms: _281  and  _282
REMARK  113  A    between atoms: _281  and  _284
REMARK  114  A    between atoms: _284  and  _285
REMARK  115  A    between atoms: _285  and  _286
REMARK  116  A    between atoms: _286  and  _287
REMARK  117  A    between atoms: _297  and  _298
REMARK  118  A    between atoms: _303  and  _305
REMARK  119  A    between atoms: _305  and  _306
REMARK  120  A    between atoms: _305  and  _308
REMARK  121  A    between atoms: _308  and  _309
REMARK  122  A    between atoms: _312  and  _314
REMARK  123  A    between atoms: _314  and  _315
REMARK  124  A    between atoms: _314  and  _317
REMARK  125  A    between atoms: _317  and  _318
REMARK  126  A    between atoms: _321  and  _323
REMARK  127  A    between atoms: _323  and  _324
REMARK  128  A    between atoms: _323  and  _326
REMARK  129  A    between atoms: _326  and  _327
REMARK  130  A    between atoms: _330  and  _332
REMARK  131  A    between atoms: _332  and  _333
REMARK  132  A    between atoms: _332  and  _335
REMARK  133  A    between atoms: _335  and  _336
REMARK  134  A    between atoms: _339  and  _341
REMARK  135  A    between atoms: _341  and  _342
REMARK  136  A    between atoms: _341  and  _344
REMARK  137  A    between atoms: _344  and  _345
REMARK  138  A    between atoms: _348  and  _350
REMARK  139  A    between atoms: _350  and  _351
REMARK  140  A    between atoms: _353  and  _355
REMARK  141  A    between atoms: _355  and  _356
REMARK  142  A    between atoms: _359  and  _361
REMARK  143  A    between atoms: _361  and  _362
REMARK  144  A    between atoms: _361  and  _364
REMARK  145  A    between atoms: _364  and  _365
REMARK  146  A    between atoms: _368  and  _370
REMARK  147  A    between atoms: _370  and  _371
REMARK  148  A    between atoms: _370  and  _373
REMARK  149  A    between atoms: _373  and  _374
REMARK  150  A    between atoms: _377  and  _379
REMARK  151  A    between atoms: _379  and  _380
REMARK  152  A    between atoms: _379  and  _382
REMARK  153  A    between atoms: _382  and  _383
REMARK  154  A    between atoms: _386  and  _388
REMARK  155  A    between atoms: _388  and  _389
REMARK  156  A    between atoms: _388  and  _391
REMARK  157  A    between atoms: _394  and  _396
REMARK  158  A    between atoms: _396  and  _397
REMARK  159  A    between atoms: _396  and  _399
REMARK  160  A    between atoms: _399  and  _400
REMARK  161  A    between atoms: _400  and  _401
REMARK  162  A    between atoms: _401  and  _402
REMARK  163  A    between atoms: _402  and  _403
REMARK  164  A    between atoms: _407  and  _409
REMARK  165  A    between atoms: _409  and  _410
REMARK  166  A    between atoms: _409  and  _412
REMARK  167  A    between atoms: _412  and  _413
REMARK  168  A    between atoms: _413  and  _414
REMARK  169  A    between atoms: _416  and  _418
REMARK  170  A    between atoms: _418  and  _419
REMARK  171  A    between atoms: _418  and  _421
REMARK  172  A    between atoms: _421  and  _422
REMARK  173  A    between atoms: _425  and  _427
REMARK  174  A    between atoms: _427  and  _428
REMARK  175  A    between atoms: _430  and  _432
REMARK  176  A    between atoms: _432  and  _433
REMARK  177  A    between atoms: _435  and  _437
REMARK  178  A    between atoms: _437  and  _438
REMARK  179  A    between atoms: _437  and  _440
REMARK  180  A    between atoms: _440  and  _441
REMARK  181  A    between atoms: _444  and  _446
REMARK  182  A    between atoms: _446  and  _447
REMARK  183  A    between atoms: _449  and  _451
REMARK  184  A    between atoms: _451  and  _452
REMARK  185  A    between atoms: _454  and  _456
REMARK  186  A    between atoms: _456  and  _457
REMARK  187  A    between atoms: _456  and  _459
REMARK  188  A    between atoms: _459  and  _460
REMARK  189  A    between atoms: _466  and  _468
REMARK  190  A    between atoms: _468  and  _469
REMARK  191  A    between atoms: _468  and  _471
REMARK  192  A    between atoms: _471  and  _472
REMARK  193  A    between atoms: _475  and  _477
REMARK  194  A    between atoms: _477  and  _478
REMARK  195  A    between atoms: _477  and  _480
REMARK  196  A    between atoms: _483  and  _485
REMARK  197  A    between atoms: _485  and  _486
REMARK  198  A    between atoms: _485  and  _488
REMARK  199  A    between atoms: _488  and  _489
REMARK  200  A    between atoms: _493  and  _494
REMARK  201  A    between atoms: _499  and  _501
REMARK  202  A    between atoms: _501  and  _502
REMARK  203  A    between atoms: _501  and  _504
REMARK  204  A    between atoms: _504  and  _505
REMARK  205  A    between atoms: _509  and  _510
REMARK  206  A    between atoms: _515  and  _517
REMARK  207  A    between atoms: _517  and  _518
REMARK  208  A    between atoms: _517  and  _520
REMARK  209  A    between atoms: _523  and  _525
REMARK  210  A    between atoms: _525  and  _526
REMARK  211  A    between atoms: _525  and  _528
REMARK  212  A    between atoms: _528  and  _529
REMARK  213  A    between atoms: _534  and  _536
REMARK  214  A    between atoms: _536  and  _537
REMARK  215  A    between atoms: _536  and  _539
REMARK  216  A    between atoms: _539  and  _540
REMARK  217  A    between atoms: _543  and  _545
REMARK  218  A    between atoms: _545  and  _546
REMARK  219  A    between atoms: _545  and  _548
REMARK  220  A    between atoms: _548  and  _549
REMARK  221  A    between atoms: _552  and  _554
REMARK  222  A    between atoms: _554  and  _555
REMARK  223  A    between atoms: _557  and  _559
REMARK  224  A    between atoms: _559  and  _560
REMARK  225  A    between atoms: _559  and  _562
REMARK  226  A    between atoms: _562  and  _563
REMARK  227  A    between atoms: _563  and  _564
REMARK  228  A    between atoms: _564  and  _565
REMARK                            x       y       z     vdW  Elec       q    Type
REMARK                         _______ _______ _______ _____ _____    ______ ____
ROOT
ATOM      1  C   ASN A   5      14.408   2.978  15.126  0.00  0.00    +0.241 C 
ATOM      2  N   ILE A   6      14.229   1.863  15.762  0.00  0.00    -0.297 N 
ATOM      3  H   ILE A   6      14.859   1.055  15.584  0.00  0.00    +0.150 HD
ATOM      4  O   ASN A   5      13.777   3.989  15.381  0.00  0.00    -0.273 OA
ENDROOT
BRANCH   2   5
ATOM      5  CA  ILE A   6      13.147   1.744  16.725  0.00  0.00    +0.149 C 
BRANCH   5   6
ATOM      6  C   ILE A   6      13.698   1.424  18.092  0.00  0.00    +0.241 C 
ATOM      7  N   ILE A   7      13.468   2.332  19.026  0.00  0.00    -0.297 N 
ATOM      8  H   ILE A   7      13.110   3.279  18.790  0.00  0.00    +0.150 HD
ATOM      9  O   ILE A   6      14.303   0.379  18.287  0.00  0.00    -0.273 OA
BRANCH   7  10
ATOM     10  CA  ILE A   7      13.741   1.939  20.403  0.00  0.00    +0.149 C 
BRANCH  10  11
ATOM     11  C   ILE A   7      12.501   1.341  21.091  0.00  0.00    +0.241 C 
ATOM     12  N   GLY A   8      12.647   0.078  21.462  0.00  0.00    -0.295 N 
ATOM     13  H   GLY A   8      13.568  -0.376  21.296  0.00  0.00    +0.150 HD
ATOM     14  O   ILE A   7      11.475   1.973  21.265  0.00  0.00    -0.273 OA
BRANCH  12  15
ATOM     15  CA  GLY A   8      11.592  -0.718  22.092  0.00  0.00    +0.176 C 
BRANCH  15  16
ATOM     16  C   GLY A   8      11.569  -0.756  23.598  0.00  0.00    +0.243 C 
ATOM     17  O   GLY A   8      12.394  -0.177  24.303  0.00  0.00    -0.273 OA
ATOM     18  N   ARG A   9      10.592  -1.491  24.110  0.00  0.00    -0.298 N 
ATOM     19  H   ARG A   9       9.955  -2.038  23.496  0.00  0.00    +0.150 HD
BRANCH  18  20
ATOM     20  CA  ARG A   9      10.435  -1.509  25.583  0.00  0.00    +0.137 C 
BRANCH  20  21
ATOM     21  C   ARG A   9      11.591  -2.019  26.445  0.00  0.00    +0.227 C 
ATOM     22  O   ARG A   9      11.841  -1.571  27.556  0.00  0.00    -0.286 OA
ENDBRANCH  20  21
BRANCH  20  23
ATOM     23  CB  ARG A   9       9.173  -2.283  26.013  0.00  0.00    +0.031 C 
BRANCH  23  24
ATOM     24  CG  ARG A   9       7.814  -1.732  25.548  0.00  0.00    +0.045 C 
BRANCH  24  25
ATOM     25  CD  ARG A   9       6.641  -2.463  26.209  0.00  0.00    +0.174 C 
BRANCH  25  26
ATOM     26  NE  ARG A   9       6.586  -3.882  25.822  0.00  0.00    -0.265 N 
ATOM     27  CZ  ARG A   9       7.103  -4.883  26.548  0.00  0.00    +0.342 C 
ATOM     28  NH2 ARG A   9       7.621  -4.632  27.756  0.00  0.00    -0.292 N 
ATOM     29 HH21 ARG A   9       8.023  -5.407  28.321  0.00  0.00    +0.255 HD
ATOM     30 HH22 ARG A   9       7.622  -3.662  28.130  0.00  0.00    +0.255 HD
ATOM     31  NH1 ARG A   9       7.131  -6.104  26.023  0.00  0.00    -0.292 N 
ATOM     32 HH11 ARG A   9       7.528  -6.896  26.569  0.00  0.00    +0.255 HD
ATOM     33 HH12 ARG A   9       6.756  -6.268  25.067  0.00  0.00    +0.255 HD
ATOM     34  HE  ARG A   9       6.115  -4.124  24.927  0.00  0.00    +0.259 HD
ENDBRANCH  25  26
ENDBRANCH  24  25
ENDBRANCH  23  24
ENDBRANCH  20  23
ENDBRANCH  18  20
ENDBRANCH  15  16
ENDBRANCH  12  15
ENDBRANCH  10  11
BRANCH  10  35
ATOM     35  CB  ILE A   7      14.273   3.165  21.165  0.00  0.00    +0.027 C 
ATOM     36  CG2 ILE A   7      14.665   2.776  22.588  0.00  0.00    +0.002 C 
BRANCH  35  37
ATOM     37  CG1 ILE A   7      15.420   3.936  20.500  0.00  0.00    +0.002 C 
ATOM     38  CD1 ILE A   7      16.636   3.064  20.166  0.00  0.00    +0.000 C 
ENDBRANCH  35  37
ENDBRANCH  10  35
ENDBRANCH   7  10
ENDBRANCH   5   6
BRANCH   5  39
ATOM     39  CB  ILE A   6      12.267   0.606  16.271  0.00  0.00    +0.027 C 
ATOM     40  CG2 ILE A   6      11.159   0.207  17.273  0.00  0.00    +0.002 C 
BRANCH  39  41
ATOM     41  CG1 ILE A   6      11.642   0.985  14.958  0.00  0.00    +0.002 C 
ATOM     42  CD1 ILE A   6      11.067  -0.247  14.299  0.00  0.00    +0.000 C 
ENDBRANCH  39  41
ENDBRANCH   5  39
ENDBRANCH   2   5
BRANCH   1  43
ATOM     43  CA  ASN A   5      15.442   2.892  13.999  0.00  0.00    +0.158 C 
BRANCH  43  45
ATOM     44  C   VAL A   4      14.088   2.661  12.023  0.00  0.00    +0.241 C 
ATOM     45  N   ASN A   5      14.912   3.422  12.730  0.00  0.00    -0.297 N 
ATOM     46  H   ASN A   5      15.178   4.371  12.397  0.00  0.00    +0.150 HD
ATOM     47  O   VAL A   4      13.918   1.483  12.285  0.00  0.00    -0.273 OA
BRANCH  44  48
ATOM     48  CA  VAL A   4      13.389   3.327  10.825  0.00  0.00    +0.149 C 
BRANCH  48  50
ATOM     49  C   PRO A   3      13.419   2.755   8.487  0.00  0.00    +0.241 C 
ATOM     50  N   VAL A   4      13.157   2.369   9.735  0.00  0.00    -0.297 N 
ATOM     51  H   VAL A   4      12.797   1.413   9.933  0.00  0.00    +0.150 HD
ATOM     52  O   PRO A   3      13.818   3.876   8.209  0.00  0.00    -0.273 OA
BRANCH  49  59
ATOM     53  C   THR A   2      14.323  -0.240   8.304  0.00  0.00    +0.246 C 
ATOM     54  O   THR A   2      15.369   0.381   8.195  0.00  0.00    -0.273 OA
ATOM     55  N   PRO A   3      13.187   0.298   7.895  0.00  0.00    -0.272 N 
ATOM     56  CD  PRO A   3      11.880  -0.332   7.817  0.00  0.00    +0.094 C 
ATOM     57  CG  PRO A   3      10.951   0.867   7.598  0.00  0.00    +0.024 C 
ATOM     58  CB  PRO A   3      11.799   1.875   6.849  0.00  0.00    +0.031 C 
ATOM     59  CA  PRO A   3      13.188   1.699   7.431  0.00  0.00    +0.152 C 
BRANCH  53  60
ATOM     60  CA  THR A   2      14.274  -1.652   8.912  0.00  0.00    +0.176 C 
BRANCH  60  62
ATOM     61  C   PRO A   1      15.472  -3.005   7.239  0.00  0.00    +0.239 C 
ATOM     62  N   THR A   2      15.383  -2.569   8.505  0.00  0.00    -0.295 N 
ATOM     63  H   THR A   2      16.089  -2.870   9.207  0.00  0.00    +0.150 HD
ATOM     64  O   PRO A   1      14.595  -2.776   6.417  0.00  0.00    -0.274 OA
BRANCH  61  69
ATOM     65  N   PRO A   1      17.262  -4.785   7.817  0.00  0.00    -0.210 NA
ATOM     66  CD  PRO A   1      17.014  -6.161   7.400  0.00  0.00    +0.089 C 
ATOM     67  CG  PRO A   1      16.077  -5.978   6.186  0.00  0.00    +0.021 C 
ATOM     68  CB  PRO A   1      16.523  -4.647   5.601  0.00  0.00    +0.028 C 
ATOM     69  CA  PRO A   1      16.752  -3.778   6.851  0.00  0.00    +0.149 C 
ENDBRANCH  61  69
ENDBRANCH  60  62
BRANCH  60  70
ATOM     70  CB  THR A   2      14.231  -1.521  10.465  0.00  0.00    +0.137 C 
ATOM     71  CG2 THR A   2      15.501  -0.950  11.066  0.00  0.00    +0.034 C 
BRANCH  70  72
ATOM     72  OG1 THR A   2      13.162  -0.665  10.846  0.00  0.00    -0.382 OA
ATOM     73  HG1 THR A   2      13.140  -0.586  11.833  0.00  0.00    +0.210 HD
ENDBRANCH  70  72
ENDBRANCH  60  70
ENDBRANCH  53  60
ENDBRANCH  49  59
ENDBRANCH  48  50
BRANCH  48  74
ATOM     74  CB  VAL A   4      12.016   3.985  11.144  0.00  0.00    +0.027 C 
ATOM     75  CG2 VAL A   4      12.086   5.056  12.210  0.00  0.00    +0.002 C 
ATOM     76  CG1 VAL A   4      10.960   2.965  11.482  0.00  0.00    +0.002 C 
ENDBRANCH  48  74
ENDBRANCH  44  48
ENDBRANCH  43  45
BRANCH  43  77
ATOM     77  CB  ASN A   5      16.660   3.676  14.494  0.00  0.00    +0.114 C 
BRANCH  77  78
ATOM     78  CG  ASN A   5      17.845   3.556  13.578  0.00  0.00    +0.222 C 
ATOM     79  OD1 ASN A   5      18.387   2.518  13.314  0.00  0.00    -0.275 OA
ATOM     80  ND2 ASN A   5      18.286   4.669  13.095  0.00  0.00    -0.329 N 
ATOM     81 HD21 ASN A   5      17.809   5.563  13.330  0.00  0.00    +0.145 HD
ATOM     82 HD22 ASN A   5      19.118   4.672  12.471  0.00  0.00    +0.145 HD
ENDBRANCH  77  78
ENDBRANCH  43  77
ENDBRANCH   1  43
TORSDOF 29
REMARK  Name = ../refined-set-2016/1hvl/1hvl_pocket.pdb
REMARK  228 active torsions:
REMARK  status: ('A' for Active; 'I' for Inactive)
REMARK    1  A    between atoms: _1  and  _3
REMARK    2  A    between atoms: _3  and  _4
REMARK    3  A    between atoms: _3  and  _6
REMARK    4  A    between atoms: _6  and  _7
REMARK    5  A    between atoms: _7  and  _8
REMARK    6  A    between atoms: _8  and  _9
REMARK    7  A    between atoms: _19  and  _20
REMARK    8  A    between atoms: _25  and  _27
REMARK    9  A    between atoms: _27  and  _28
REMARK   10  A    between atoms: _27  and  _30
REMARK   11  A    between atoms: _30  and  _31
REMARK   12  A    between atoms: _34  and  _36
REMARK   13  A    between atoms: _36  and  _37
REMARK   14  A    between atoms: _36  and  _39
REMARK   15  A    between atoms: _39  and  _40
REMARK   16  A    between atoms: _43  and  _45
REMARK   17  A    between atoms: _45  and  _46
REMARK   18  A    between atoms: _45  and  _48
REMARK   19  A    between atoms: _48  and  _49
REMARK   20  A    between atoms: _52  and  _54
REMARK   21  A    between atoms: _54  and  _55
REMARK   22  A    between atoms: _54  and  _57
REMARK   23  A    between atoms: _57  and  _58
REMARK   24  A    between atoms: _61  and  _63
REMARK   25  A    between atoms: _63  and  _64
REMARK   26  A    between atoms: _63  and  _66
REMARK   27  A    between atoms: _66  and  _67
REMARK   28  A    between atoms: _70  and  _72
REMARK   29  A    between atoms: _72  and  _73
REMARK   30  A    between atoms: _75  and  _77
REMARK   31  A    between atoms: _77  and  _78
REMARK   32  A    between atoms: _81  and  _83
REMARK   33  A    between atoms: _83  and  _84
REMARK   34  A    between atoms: _83  and  _86
REMARK   35  A    between atoms: _86  and  _87
REMARK   36  A    between atoms: _90  and  _92
REMARK   37  A    between atoms: _92  and  _93
REMARK   38  A    between atoms: _92  and  _95
REMARK   39  A    between atoms: _95  and  _96
REMARK   40  A    between atoms: _99  and  _101
REMARK   41  A    between atoms: _101  and  _102
REMARK   42  A    between atoms: _101  and  _104
REMARK   43  A    between atoms: _104  and  _105
REMARK   44  A    between atoms: _108  and  _110
REMARK   45  A    between atoms: _110  and  _111
REMARK   46  A    between atoms: _110  and  _113
REMARK   47  A    between atoms: _116  and  _118
REMARK   48  A    between atoms: _118  and  _119
REMARK   49  A    between atoms: _118  and  _121
REMARK   50  A    between atoms: _121  and  _122
REMARK   51  A    between atoms: _122  and  _123
REMARK   52  A    between atoms: _123  and  _124
REMARK   53  A    between atoms: _124  and  _125
REMARK   54  A    between atoms: _129  and  _131
REMARK   55  A    between atoms: _131  and  _132
REMARK   56  A    between atoms: _131  and  _134
REMARK   57  A    between atoms: _134  and  _135
REMARK   58  A    between atoms: _138  and  _140
REMARK   59  A    between atoms: _140  and  _141
REMARK   60  A    between atoms: _143  and  _145
REMARK   61  A    between atoms: _145  and  _146
REMARK   62  A    between atoms: _148  and  _150
REMARK   63  A    between atoms: _150  and  _151
REMARK   64  A    between atoms: _150  and  _153
REMARK   65  A    between atoms: _153  and  _154
REMARK   66  A    between atoms: _157  and  _159
REMARK   67  A    between atoms: _159  and  _160
REMARK   68  A    between atoms: _162  and  _164
REMARK   69  A    between atoms: _164  and  _165
REMARK   70  A    between atoms: _167  and  _169
REMARK   71  A    between atoms: _169  and  _170
REMARK   72  A    between atoms: _169  and  _172
REMARK   73  A    between atoms: _172  and  _173
REMARK   74  A    between atoms: _179  and  _181
REMARK   75  A    between atoms: _181  and  _182
REMARK   76  A    between atoms: _181  and  _184
REMARK   77  A    between atoms: _184  and  _185
REMARK   78  A    between atoms: _188  and  _190
REMARK   79  A    between atoms: _190  and  _191
REMARK   80  A    between atoms: _190  and  _193
REMARK   81  A    between atoms: _193  and  _194
REMARK   82  A    between atoms: _198  and  _199
REMARK   83  A    between atoms: _204  and  _206
REMARK   84  A    between atoms: _206  and  _207
REMARK   85  A    between atoms: _206  and  _209
REMARK   86  A    between atoms: _209  and  _210
REMARK   87  A    between atoms: _214  and  _215
REMARK   88  A    between atoms: _220  and  _222
REMARK   89  A    between atoms: _222  and  _223
REMARK   90  A    between atoms: _222  and  _225
REMARK   91  A    between atoms: _228  and  _230
REMARK   92  A    between atoms: _230  and  _231
REMARK   93  A    between atoms: _230  and  _233
REMARK   94  A    between atoms: _233  and  _234
REMARK   95  A    between atoms: _239  and  _241
REMARK   96  A    between atoms: _241  and  _242
REMARK   97  A    between atoms: _241  and  _244
REMARK   98  A    between atoms: _244  and  _245
REMARK   99  A    between atoms: _248  and  _250
REMARK  100  A    between atoms: _250  and  _251
REMARK  101  A    between atoms: _250  and  _253
REMARK  102  A    between atoms: _253  and  _254
REMARK  103  A    between atoms: _257  and  _259
REMARK  104  A    between atoms: _259  and  _260
REMARK  105  A    between atoms: _262  and  _264
REMARK  106  A    between atoms: _264  and  _265
REMARK  107  A    between atoms: _264  and  _267
REMARK  108  A    between atoms: _267  and  _268
REMARK  109  A    between atoms: _268  and  _269
REMARK  110  A    between atoms: _269  and  _270
REMARK  111  A    between atoms: _279  and  _281
REMARK  112  A    between atoms: _281  and  _282
REMARK  113  A    between atoms: _281  and  _284
REMARK  114  A    between atoms: _284  and  _285
REMARK  115  A    between atoms: _285  and  _286
REMARK  116  A    between atoms: _286  and  _287
REMARK  117  A    between atoms: _297  and  _298
REMARK  118  A    between atoms: _303  and  _305
REMARK  119  A    between atoms: _305  and  _306
REMARK  120  A    between atoms: _305  and  _308
REMARK  121  A    between atoms: _308  and  _309
REMARK  122  A    between atoms: _312  and  _314
REMARK  123  A    between atoms: _314  and  _315
REMARK  124  A    between atoms: _314  and  _317
REMARK  125  A    between atoms: _317  and  _318
REMARK  126  A    between atoms: _321  and  _323
REMARK  127  A    between atoms: _323  and  _324
REMARK  128  A    between atoms: _323  and  _326
REMARK  129  A    between atoms: _326  and  _327
REMARK  130  A    between atoms: _330  and  _332
REMARK  131  A    between atoms: _332  and  _333
REMARK  132  A    between atoms: _332  and  _335
REMARK  133  A    between atoms: _335  and  _336
REMARK  134  A    between atoms: _339  and  _341
REMARK  135  A    between atoms: _341  and  _342
REMARK  136  A    between atoms: _341  and  _344
REMARK  137  A    between atoms: _344  and  _345
REMARK  138  A    between atoms: _348  and  _350
REMARK  139  A    between atoms: _350  and  _351
REMARK  140  A    between atoms: _353  and  _355
REMARK  141  A    between atoms: _355  and  _356
REMARK  142  A    between atoms: _359  and  _361
REMARK  143  A    between atoms: _361  and  _362
REMARK  144  A    between atoms: _361  and  _364
REMARK  145  A    between atoms: _364  and  _365
REMARK  146  A    between atoms: _368  and  _370
REMARK  147  A    between atoms: _370  and  _371
REMARK  148  A    between atoms: _370  and  _373
REMARK  149  A    between atoms: _373  and  _374
REMARK  150  A    between atoms: _377  and  _379
REMARK  151  A    between atoms: _379  and  _380
REMARK  152  A    between atoms: _379  and  _382
REMARK  153  A    between atoms: _382  and  _383
REMARK  154  A    between atoms: _386  and  _388
REMARK  155  A    between atoms: _388  and  _389
REMARK  156  A    between atoms: _388  and  _391
REMARK  157  A    between atoms: _394  and  _396
REMARK  158  A    between atoms: _396  and  _397
REMARK  159  A    between atoms: _396  and  _399
REMARK  160  A    between atoms: _399  and  _400
REMARK  161  A    between atoms: _400  and  _401
REMARK  162  A    between atoms: _401  and  _402
REMARK  163  A    between atoms: _402  and  _403
REMARK  164  A    between atoms: _407  and  _409
REMARK  165  A    between atoms: _409  and  _410
REMARK  166  A    between atoms: _409  and  _412
REMARK  167  A    between atoms: _412  and  _413
REMARK  168  A    between atoms: _413  and  _414
REMARK  169  A    between atoms: _416  and  _418
REMARK  170  A    between atoms: _418  and  _419
REMARK  171  A    between atoms: _418  and  _421
REMARK  172  A    between atoms: _421  and  _422
REMARK  173  A    between atoms: _425  and  _427
REMARK  174  A    between atoms: _427  and  _428
REMARK  175  A    between atoms: _430  and  _432
REMARK  176  A    between atoms: _432  and  _433
REMARK  177  A    between atoms: _435  and  _437
REMARK  178  A    between atoms: _437  and  _438
REMARK  179  A    between atoms: _437  and  _440
REMARK  180  A    between atoms: _440  and  _441
REMARK  181  A    between atoms: _444  and  _446
REMARK  182  A    between atoms: _446  and  _447
REMARK  183  A    between atoms: _449  and  _451
REMARK  184  A    between atoms: _451  and  _452
REMARK  185  A    between atoms: _454  and  _456
REMARK  186  A    between atoms: _456  and  _457
REMARK  187  A    between atoms: _456  and  _459
REMARK  188  A    between atoms: _459  and  _460
REMARK  189  A    between atoms: _466  and  _468
REMARK  190  A    between atoms: _468  and  _469
REMARK  191  A    between atoms: _468  and  _471
REMARK  192  A    between atoms: _471  and  _472
REMARK  193  A    between atoms: _475  and  _477
REMARK  194  A    between atoms: _477  and  _478
REMARK  195  A    between atoms: _477  and  _480
REMARK  196  A    between atoms: _483  and  _485
REMARK  197  A    between atoms: _485  and  _486
REMARK  198  A    between atoms: _485  and  _488
REMARK  199  A    between atoms: _488  and  _489
REMARK  200  A    between atoms: _493  and  _494
REMARK  201  A    between atoms: _499  and  _501
REMARK  202  A    between atoms: _501  and  _502
REMARK  203  A    between atoms: _501  and  _504
REMARK  204  A    between atoms: _504  and  _505
REMARK  205  A    between atoms: _509  and  _510
REMARK  206  A    between atoms: _515  and  _517
REMARK  207  A    between atoms: _517  and  _518
REMARK  208  A    between atoms: _517  and  _520
REMARK  209  A    between atoms: _523  and  _525
REMARK  210  A    between atoms: _525  and  _526
REMARK  211  A    between atoms: _525  and  _528
REMARK  212  A    between atoms: _528  and  _529
REMARK  213  A    between atoms: _534  and  _536
REMARK  214  A    between atoms: _536  and  _537
REMARK  215  A    between atoms: _536  and  _539
REMARK  216  A    between atoms: _539  and  _540
REMARK  217  A    between atoms: _543  and  _545
REMARK  218  A    between atoms: _545  and  _546
REMARK  219  A    between atoms: _545  and  _548
REMARK  220  A    between atoms: _548  and  _549
REMARK  221  A    between atoms: _552  and  _554
REMARK  222  A    between atoms: _554  and  _555
REMARK  223  A    between atoms: _557  and  _559
REMARK  224  A    between atoms: _559  and  _560
REMARK  225  A    between atoms: _559  and  _562
REMARK  226  A    between atoms: _562  and  _563
REMARK  227  A    between atoms: _563  and  _564
REMARK  228  A    between atoms: _564  and  _565
REMARK                            x       y       z     vdW  Elec       q    Type
REMARK                         _______ _______ _______ _____ _____    ______ ____
ROOT
ATOM      1  O   HOH     1       5.164  -3.353  11.866  0.00  0.00    +0.000 OA
ENDROOT
TORSDOF 0
