REMARK  Name = ../refined-set-2016/2xyd/2xyd_pocket.pdb
REMARK  300 active torsions:
REMARK  status: ('A' for Active; 'I' for Inactive)
REMARK    1  A    between atoms: _1  and  _3
REMARK    2  A    between atoms: _3  and  _4
REMARK    3  A    between atoms: _3  and  _6
REMARK    4  A    between atoms: _6  and  _7
REMARK    5  A    between atoms: _10  and  _12
REMARK    6  A    between atoms: _12  and  _13
REMARK    7  A    between atoms: _12  and  _15
REMARK    8  A    between atoms: _15  and  _16
REMARK    9  A    between atoms: _21  and  _22
REMARK   10  A    between atoms: _24  and  _26
REMARK   11  A    between atoms: _26  and  _27
REMARK   12  A    between atoms: _26  and  _29
REMARK   13  A    between atoms: _29  and  _30
REMARK   14  A    between atoms: _35  and  _36
REMARK   15  A    between atoms: _38  and  _40
REMARK   16  A    between atoms: _40  and  _41
REMARK   17  A    between atoms: _40  and  _43
REMARK   18  A    between atoms: _43  and  _44
REMARK   19  A    between atoms: _47  and  _49
REMARK   20  A    between atoms: _49  and  _50
REMARK   21  A    between atoms: _49  and  _52
REMARK   22  A    between atoms: _52  and  _53
REMARK   23  A    between atoms: _63  and  _65
REMARK   24  A    between atoms: _65  and  _66
REMARK   25  A    between atoms: _65  and  _68
REMARK   26  A    between atoms: _68  and  _69
REMARK   27  A    between atoms: _69  and  _70
REMARK   28  A    between atoms: _75  and  _77
REMARK   29  A    between atoms: _77  and  _78
REMARK   30  A    between atoms: _77  and  _80
REMARK   31  A    between atoms: _80  and  _81
REMARK   32  A    between atoms: _83  and  _85
REMARK   33  A    between atoms: _85  and  _86
REMARK   34  A    between atoms: _85  and  _88
REMARK   35  A    between atoms: _88  and  _89
REMARK   36  A    between atoms: _99  and  _101
REMARK   37  A    between atoms: _101  and  _102
REMARK   38  A    between atoms: _101  and  _104
REMARK   39  A    between atoms: _104  and  _105
REMARK   40  A    between atoms: _105  and  _106
REMARK   41  A    between atoms: _109  and  _111
REMARK   42  A    between atoms: _111  and  _112
REMARK   43  A    between atoms: _111  and  _114
REMARK   44  A    between atoms: _114  and  _115
REMARK   45  A    between atoms: _120  and  _122
REMARK   46  A    between atoms: _122  and  _123
REMARK   47  A    between atoms: _122  and  _125
REMARK   48  A    between atoms: _128  and  _130
REMARK   49  A    between atoms: _130  and  _131
REMARK   50  A    between atoms: _130  and  _133
REMARK   51  A    between atoms: _135  and  _137
REMARK   52  A    between atoms: _137  and  _138
REMARK   53  A    between atoms: _137  and  _140
REMARK   54  A    between atoms: _140  and  _141
REMARK   55  A    between atoms: _146  and  _148
REMARK   56  A    between atoms: _148  and  _149
REMARK   57  A    between atoms: _152  and  _154
REMARK   58  A    between atoms: _154  and  _155
REMARK   59  A    between atoms: _154  and  _157
REMARK   60  A    between atoms: _157  and  _158
REMARK   61  A    between atoms: _160  and  _162
REMARK   62  A    between atoms: _162  and  _163
REMARK   63  A    between atoms: _166  and  _168
REMARK   64  A    between atoms: _168  and  _169
REMARK   65  A    between atoms: _168  and  _171
REMARK   66  A    between atoms: _171  and  _172
REMARK   67  A    between atoms: _182  and  _184
REMARK   68  A    between atoms: _184  and  _185
REMARK   69  A    between atoms: _184  and  _187
REMARK   70  A    between atoms: _187  and  _188
REMARK   71  A    between atoms: _191  and  _193
REMARK   72  A    between atoms: _193  and  _194
REMARK   73  A    between atoms: _193  and  _196
REMARK   74  A    between atoms: _196  and  _197
REMARK   75  A    between atoms: _202  and  _203
REMARK   76  A    between atoms: _205  and  _207
REMARK   77  A    between atoms: _207  and  _208
REMARK   78  A    between atoms: _207  and  _210
REMARK   79  A    between atoms: _210  and  _211
REMARK   80  A    between atoms: _211  and  _212
REMARK   81  A    between atoms: _212  and  _213
REMARK   82  A    between atoms: _222  and  _224
REMARK   83  A    between atoms: _224  and  _225
REMARK   84  A    between atoms: _224  and  _227
REMARK   85  A    between atoms: _227  and  _228
REMARK   86  A    between atoms: _231  and  _233
REMARK   87  A    between atoms: _233  and  _234
REMARK   88  A    between atoms: _233  and  _236
REMARK   89  A    between atoms: _236  and  _237
REMARK   90  A    between atoms: _237  and  _238
REMARK   91  A    between atoms: _238  and  _239
REMARK   92  A    between atoms: _239  and  _240
REMARK   93  A    between atoms: _244  and  _246
REMARK   94  A    between atoms: _246  and  _247
REMARK   95  A    between atoms: _246  and  _249
REMARK   96  A    between atoms: _249  and  _250
REMARK   97  A    between atoms: _250  and  _251
REMARK   98  A    between atoms: _256  and  _258
REMARK   99  A    between atoms: _258  and  _259
REMARK  100  A    between atoms: _258  and  _261
REMARK  101  A    between atoms: _261  and  _262
REMARK  102  A    between atoms: _262  and  _263
REMARK  103  A    between atoms: _263  and  _264
REMARK  104  A    between atoms: _273  and  _275
REMARK  105  A    between atoms: _275  and  _276
REMARK  106  A    between atoms: _275  and  _278
REMARK  107  A    between atoms: _278  and  _279
REMARK  108  A    between atoms: _282  and  _284
REMARK  109  A    between atoms: _284  and  _285
REMARK  110  A    between atoms: _284  and  _287
REMARK  111  A    between atoms: _287  and  _288
REMARK  112  A    between atoms: _288  and  _289
REMARK  113  A    between atoms: _291  and  _293
REMARK  114  A    between atoms: _293  and  _294
REMARK  115  A    between atoms: _293  and  _296
REMARK  116  A    between atoms: _296  and  _297
REMARK  117  A    between atoms: _300  and  _302
REMARK  118  A    between atoms: _302  and  _303
REMARK  119  A    between atoms: _302  and  _305
REMARK  120  A    between atoms: _305  and  _306
REMARK  121  A    between atoms: _306  and  _307
REMARK  122  A    between atoms: _312  and  _314
REMARK  123  A    between atoms: _314  and  _315
REMARK  124  A    between atoms: _314  and  _317
REMARK  125  A    between atoms: _317  and  _318
REMARK  126  A    between atoms: _321  and  _323
REMARK  127  A    between atoms: _323  and  _324
REMARK  128  A    between atoms: _323  and  _326
REMARK  129  A    between atoms: _326  and  _327
REMARK  130  A    between atoms: _329  and  _331
REMARK  131  A    between atoms: _331  and  _332
REMARK  132  A    between atoms: _331  and  _334
REMARK  133  A    between atoms: _334  and  _335
REMARK  134  A    between atoms: _338  and  _340
REMARK  135  A    between atoms: _340  and  _341
REMARK  136  A    between atoms: _340  and  _343
REMARK  137  A    between atoms: _346  and  _348
REMARK  138  A    between atoms: _348  and  _349
REMARK  139  A    between atoms: _348  and  _351
REMARK  140  A    between atoms: _351  and  _352
REMARK  141  A    between atoms: _357  and  _359
REMARK  142  A    between atoms: _370  and  _373
REMARK  143  A    between atoms: _373  and  _374
REMARK  144  A    between atoms: _374  and  _375
REMARK  145  A    between atoms: _380  and  _383
REMARK  146  A    between atoms: _383  and  _384
REMARK  147  A    between atoms: _384  and  _385
REMARK  148  A    between atoms: _394  and  _395
REMARK  149  A    between atoms: _403  and  _405
REMARK  150  A    between atoms: _405  and  _406
REMARK  151  A    between atoms: _405  and  _408
REMARK  152  A    between atoms: _408  and  _409
REMARK  153  A    between atoms: _412  and  _414
REMARK  154  A    between atoms: _414  and  _415
REMARK  155  A    between atoms: _414  and  _417
REMARK  156  A    between atoms: _417  and  _418
REMARK  157  A    between atoms: _423  and  _424
REMARK  158  A    between atoms: _426  and  _428
REMARK  159  A    between atoms: _428  and  _429
REMARK  160  A    between atoms: _428  and  _431
REMARK  161  A    between atoms: _431  and  _432
REMARK  162  A    between atoms: _437  and  _438
REMARK  163  A    between atoms: _440  and  _442
REMARK  164  A    between atoms: _442  and  _443
REMARK  165  A    between atoms: _442  and  _445
REMARK  166  A    between atoms: _445  and  _446
REMARK  167  A    between atoms: _451  and  _452
REMARK  168  A    between atoms: _454  and  _456
REMARK  169  A    between atoms: _456  and  _457
REMARK  170  A    between atoms: _456  and  _459
REMARK  171  A    between atoms: _459  and  _460
REMARK  172  A    between atoms: _460  and  _461
REMARK  173  A    between atoms: _461  and  _462
REMARK  174  A    between atoms: _471  and  _473
REMARK  175  A    between atoms: _473  and  _474
REMARK  176  A    between atoms: _473  and  _476
REMARK  177  A    between atoms: _476  and  _477
REMARK  178  A    between atoms: _477  and  _478
REMARK  179  A    between atoms: _478  and  _479
REMARK  180  A    between atoms: _488  and  _490
REMARK  181  A    between atoms: _490  and  _491
REMARK  182  A    between atoms: _493  and  _495
REMARK  183  A    between atoms: _495  and  _496
REMARK  184  A    between atoms: _499  and  _501
REMARK  185  A    between atoms: _501  and  _502
REMARK  186  A    between atoms: _501  and  _504
REMARK  187  A    between atoms: _504  and  _505
REMARK  188  A    between atoms: _511  and  _512
REMARK  189  A    between atoms: _517  and  _519
REMARK  190  A    between atoms: _519  and  _520
REMARK  191  A    between atoms: _522  and  _524
REMARK  192  A    between atoms: _524  and  _525
REMARK  193  A    between atoms: _524  and  _527
REMARK  194  A    between atoms: _527  and  _528
REMARK  195  A    between atoms: _534  and  _536
REMARK  196  A    between atoms: _536  and  _537
REMARK  197  A    between atoms: _536  and  _539
REMARK  198  A    between atoms: _539  and  _540
REMARK  199  A    between atoms: _545  and  _547
REMARK  200  A    between atoms: _547  and  _548
REMARK  201  A    between atoms: _547  and  _550
REMARK  202  A    between atoms: _550  and  _551
REMARK  203  A    between atoms: _551  and  _552
REMARK  204  A    between atoms: _552  and  _553
REMARK  205  A    between atoms: _553  and  ZN_801
REMARK  206  A    between atoms: _555  and  _557
REMARK  207  A    between atoms: _557  and  _558
REMARK  208  A    between atoms: _561  and  _563
REMARK  209  A    between atoms: _563  and  _564
REMARK  210  A    between atoms: _566  and  _568
REMARK  211  A    between atoms: _568  and  _569
REMARK  212  A    between atoms: _568  and  _571
REMARK  213  A    between atoms: _571  and  _572
REMARK  214  A    between atoms: _575  and  _577
REMARK  215  A    between atoms: _577  and  _578
REMARK  216  A    between atoms: _581  and  _583
REMARK  217  A    between atoms: _583  and  _584
REMARK  218  A    between atoms: _583  and  _586
REMARK  219  A    between atoms: _586  and  _587
REMARK  220  A    between atoms: _587  and  _588
REMARK  221  A    between atoms: _591  and  _593
REMARK  222  A    between atoms: _593  and  _594
REMARK  223  A    between atoms: _593  and  _596
REMARK  224  A    between atoms: _596  and  _597
REMARK  225  A    between atoms: _597  and  _598
REMARK  226  A    between atoms: _598  and  _599
REMARK  227  A    between atoms: _599  and  _600
REMARK  228  A    between atoms: _604  and  _606
REMARK  229  A    between atoms: _606  and  _607
REMARK  230  A    between atoms: _606  and  _609
REMARK  231  A    between atoms: _609  and  _610
REMARK  232  A    between atoms: _616  and  _618
REMARK  233  A    between atoms: _618  and  _619
REMARK  234  A    between atoms: _618  and  _621
REMARK  235  A    between atoms: _621  and  _622
REMARK  236  A    between atoms: _628  and  _630
REMARK  237  A    between atoms: _630  and  _631
REMARK  238  A    between atoms: _633  and  _635
REMARK  239  A    between atoms: _635  and  _636
REMARK  240  A    between atoms: _635  and  _638
REMARK  241  A    between atoms: _641  and  _643
REMARK  242  A    between atoms: _643  and  _644
REMARK  243  A    between atoms: _643  and  _646
REMARK  244  A    between atoms: _646  and  _647
REMARK  245  A    between atoms: _647  and  _648
REMARK  246  A    between atoms: _648  and  _649
REMARK  247  A    between atoms: _649  and  _650
REMARK  248  A    between atoms: _654  and  _656
REMARK  249  A    between atoms: _656  and  _657
REMARK  250  A    between atoms: _656  and  _659
REMARK  251  A    between atoms: _659  and  _660
REMARK  252  A    between atoms: _666  and  _668
REMARK  253  A    between atoms: _668  and  _669
REMARK  254  A    between atoms: _668  and  _671
REMARK  255  A    between atoms: _671  and  _672
REMARK  256  A    between atoms: _677  and  _679
REMARK  257  A    between atoms: _679  and  _680
REMARK  258  A    between atoms: _679  and  _682
REMARK  259  A    between atoms: _682  and  _683
REMARK  260  A    between atoms: _688  and  _690
REMARK  261  A    between atoms: _690  and  _691
REMARK  262  A    between atoms: _690  and  _693
REMARK  263  A    between atoms: _696  and  _698
REMARK  264  A    between atoms: _698  and  _699
REMARK  265  A    between atoms: _698  and  _701
REMARK  266  A    between atoms: _701  and  _702
REMARK  267  A    between atoms: _706  and  _707
REMARK  268  A    between atoms: _712  and  _714
REMARK  269  A    between atoms: _714  and  _715
REMARK  270  A    between atoms: _714  and  _717
REMARK  271  A    between atoms: _717  and  _718
REMARK  272  A    between atoms: _723  and  _724
REMARK  273  A    between atoms: _726  and  _728
REMARK  274  A    between atoms: _728  and  _729
REMARK  275  A    between atoms: _728  and  _731
REMARK  276  A    between atoms: _731  and  _732
REMARK  277  A    between atoms: _732  and  _733
REMARK  278  A    between atoms: _733  and  _734
REMARK  279  A    between atoms: _743  and  _745
REMARK  280  A    between atoms: _745  and  _746
REMARK  281  A    between atoms: _745  and  _748
REMARK  282  A    between atoms: _748  and  _749
REMARK  283  A    between atoms: _754  and  _755
REMARK  284  A    between atoms: _757  and  _759
REMARK  285  A    between atoms: _759  and  _760
REMARK  286  A    between atoms: _759  and  _762
REMARK  287  A    between atoms: _762  and  _763
REMARK  288  A    between atoms: _769  and  _771
REMARK  289  A    between atoms: _771  and  _772
REMARK  290  A    between atoms: _771  and  _774
REMARK  291  A    between atoms: _774  and  _775
REMARK  292  A    between atoms: _777  and  _779
REMARK  293  A    between atoms: _779  and  _780
REMARK  294  A    between atoms: _779  and  _782
REMARK  295  A    between atoms: _782  and  _783
REMARK  296  A    between atoms: _789  and  _791
REMARK  297  A    between atoms: _791  and  _792
REMARK  298  A    between atoms: _791  and  _794
REMARK  299  A    between atoms: _794  and  _795
REMARK  300  A    between atoms: _795  and  _796
REMARK                            x       y       z     vdW  Elec       q    Type
REMARK                         _______ _______ _______ _____ _____    ______ ____
ROOT
ATOM      1  CA  ASP A   1      -8.310 -12.103 -33.248  0.00  0.00    +0.144 C 
ENDROOT
BRANCH   1   2
ATOM      2  N   ASP A   1      -9.728 -12.262 -33.614  0.00  0.00    -0.239 NA
ATOM      3  H   ASP A   1     -10.303 -12.991 -33.145  0.00  0.00    +0.142 HD
ENDBRANCH   1   2
BRANCH   1   4
ATOM      4  C   ASP A   1      -7.350 -12.342 -34.413  0.00  0.00    +0.225 C 
ATOM      5  O   ASP A   1      -6.266 -11.776 -34.439  0.00  0.00    -0.287 OA
ENDBRANCH   1   4
BRANCH   1   6
ATOM      6  CB  ASP A   1      -7.944 -12.986 -32.047  0.00  0.00    +0.139 C 
BRANCH   6   7
ATOM      7  CG  ASP A   1      -8.674 -12.579 -30.767  0.00  0.00    +0.367 C 
ATOM      8  OD2 ASP A   1      -8.520 -13.287 -29.754  0.00  0.00    -0.246 OA
ATOM      9  OD1 ASP A   1      -9.411 -11.568 -30.768  0.00  0.00    -0.246 OA
ENDBRANCH   6   7
ENDBRANCH   1   6
TORSDOF 4
REMARK  Name = ../refined-set-2016/2xyd/2xyd_pocket.pdb
REMARK  300 active torsions:
REMARK  status: ('A' for Active; 'I' for Inactive)
REMARK    1  A    between atoms: _1  and  _3
REMARK    2  A    between atoms: _3  and  _4
REMARK    3  A    between atoms: _3  and  _6
REMARK    4  A    between atoms: _6  and  _7
REMARK    5  A    between atoms: _10  and  _12
REMARK    6  A    between atoms: _12  and  _13
REMARK    7  A    between atoms: _12  and  _15
REMARK    8  A    between atoms: _15  and  _16
REMARK    9  A    between atoms: _21  and  _22
REMARK   10  A    between atoms: _24  and  _26
REMARK   11  A    between atoms: _26  and  _27
REMARK   12  A    between atoms: _26  and  _29
REMARK   13  A    between atoms: _29  and  _30
REMARK   14  A    between atoms: _35  and  _36
REMARK   15  A    between atoms: _38  and  _40
REMARK   16  A    between atoms: _40  and  _41
REMARK   17  A    between atoms: _40  and  _43
REMARK   18  A    between atoms: _43  and  _44
REMARK   19  A    between atoms: _47  and  _49
REMARK   20  A    between atoms: _49  and  _50
REMARK   21  A    between atoms: _49  and  _52
REMARK   22  A    between atoms: _52  and  _53
REMARK   23  A    between atoms: _63  and  _65
REMARK   24  A    between atoms: _65  and  _66
REMARK   25  A    between atoms: _65  and  _68
REMARK   26  A    between atoms: _68  and  _69
REMARK   27  A    between atoms: _69  and  _70
REMARK   28  A    between atoms: _75  and  _77
REMARK   29  A    between atoms: _77  and  _78
REMARK   30  A    between atoms: _77  and  _80
REMARK   31  A    between atoms: _80  and  _81
REMARK   32  A    between atoms: _83  and  _85
REMARK   33  A    between atoms: _85  and  _86
REMARK   34  A    between atoms: _85  and  _88
REMARK   35  A    between atoms: _88  and  _89
REMARK   36  A    between atoms: _99  and  _101
REMARK   37  A    between atoms: _101  and  _102
REMARK   38  A    between atoms: _101  and  _104
REMARK   39  A    between atoms: _104  and  _105
REMARK   40  A    between atoms: _105  and  _106
REMARK   41  A    between atoms: _109  and  _111
REMARK   42  A    between atoms: _111  and  _112
REMARK   43  A    between atoms: _111  and  _114
REMARK   44  A    between atoms: _114  and  _115
REMARK   45  A    between atoms: _120  and  _122
REMARK   46  A    between atoms: _122  and  _123
REMARK   47  A    between atoms: _122  and  _125
REMARK   48  A    between atoms: _128  and  _130
REMARK   49  A    between atoms: _130  and  _131
REMARK   50  A    between atoms: _130  and  _133
REMARK   51  A    between atoms: _135  and  _137
REMARK   52  A    between atoms: _137  and  _138
REMARK   53  A    between atoms: _137  and  _140
REMARK   54  A    between atoms: _140  and  _141
REMARK   55  A    between atoms: _146  and  _148
REMARK   56  A    between atoms: _148  and  _149
REMARK   57  A    between atoms: _152  and  _154
REMARK   58  A    between atoms: _154  and  _155
REMARK   59  A    between atoms: _154  and  _157
REMARK   60  A    between atoms: _157  and  _158
REMARK   61  A    between atoms: _160  and  _162
REMARK   62  A    between atoms: _162  and  _163
REMARK   63  A    between atoms: _166  and  _168
REMARK   64  A    between atoms: _168  and  _169
REMARK   65  A    between atoms: _168  and  _171
REMARK   66  A    between atoms: _171  and  _172
REMARK   67  A    between atoms: _182  and  _184
REMARK   68  A    between atoms: _184  and  _185
REMARK   69  A    between atoms: _184  and  _187
REMARK   70  A    between atoms: _187  and  _188
REMARK   71  A    between atoms: _191  and  _193
REMARK   72  A    between atoms: _193  and  _194
REMARK   73  A    between atoms: _193  and  _196
REMARK   74  A    between atoms: _196  and  _197
REMARK   75  A    between atoms: _202  and  _203
REMARK   76  A    between atoms: _205  and  _207
REMARK   77  A    between atoms: _207  and  _208
REMARK   78  A    between atoms: _207  and  _210
REMARK   79  A    between atoms: _210  and  _211
REMARK   80  A    between atoms: _211  and  _212
REMARK   81  A    between atoms: _212  and  _213
REMARK   82  A    between atoms: _222  and  _224
REMARK   83  A    between atoms: _224  and  _225
REMARK   84  A    between atoms: _224  and  _227
REMARK   85  A    between atoms: _227  and  _228
REMARK   86  A    between atoms: _231  and  _233
REMARK   87  A    between atoms: _233  and  _234
REMARK   88  A    between atoms: _233  and  _236
REMARK   89  A    between atoms: _236  and  _237
REMARK   90  A    between atoms: _237  and  _238
REMARK   91  A    between atoms: _238  and  _239
REMARK   92  A    between atoms: _239  and  _240
REMARK   93  A    between atoms: _244  and  _246
REMARK   94  A    between atoms: _246  and  _247
REMARK   95  A    between atoms: _246  and  _249
REMARK   96  A    between atoms: _249  and  _250
REMARK   97  A    between atoms: _250  and  _251
REMARK   98  A    between atoms: _256  and  _258
REMARK   99  A    between atoms: _258  and  _259
REMARK  100  A    between atoms: _258  and  _261
REMARK  101  A    between atoms: _261  and  _262
REMARK  102  A    between atoms: _262  and  _263
REMARK  103  A    between atoms: _263  and  _264
REMARK  104  A    between atoms: _273  and  _275
REMARK  105  A    between atoms: _275  and  _276
REMARK  106  A    between atoms: _275  and  _278
REMARK  107  A    between atoms: _278  and  _279
REMARK  108  A    between atoms: _282  and  _284
REMARK  109  A    between atoms: _284  and  _285
REMARK  110  A    between atoms: _284  and  _287
REMARK  111  A    between atoms: _287  and  _288
REMARK  112  A    between atoms: _288  and  _289
REMARK  113  A    between atoms: _291  and  _293
REMARK  114  A    between atoms: _293  and  _294
REMARK  115  A    between atoms: _293  and  _296
REMARK  116  A    between atoms: _296  and  _297
REMARK  117  A    between atoms: _300  and  _302
REMARK  118  A    between atoms: _302  and  _303
REMARK  119  A    between atoms: _302  and  _305
REMARK  120  A    between atoms: _305  and  _306
REMARK  121  A    between atoms: _306  and  _307
REMARK  122  A    between atoms: _312  and  _314
REMARK  123  A    between atoms: _314  and  _315
REMARK  124  A    between atoms: _314  and  _317
REMARK  125  A    between atoms: _317  and  _318
REMARK  126  A    between atoms: _321  and  _323
REMARK  127  A    between atoms: _323  and  _324
REMARK  128  A    between atoms: _323  and  _326
REMARK  129  A    between atoms: _326  and  _327
REMARK  130  A    between atoms: _329  and  _331
REMARK  131  A    between atoms: _331  and  _332
REMARK  132  A    between atoms: _331  and  _334
REMARK  133  A    between atoms: _334  and  _335
REMARK  134  A    between atoms: _338  and  _340
REMARK  135  A    between atoms: _340  and  _341
REMARK  136  A    between atoms: _340  and  _343
REMARK  137  A    between atoms: _346  and  _348
REMARK  138  A    between atoms: _348  and  _349
REMARK  139  A    between atoms: _348  and  _351
REMARK  140  A    between atoms: _351  and  _352
REMARK  141  A    between atoms: _357  and  _359
REMARK  142  A    between atoms: _370  and  _373
REMARK  143  A    between atoms: _373  and  _374
REMARK  144  A    between atoms: _374  and  _375
REMARK  145  A    between atoms: _380  and  _383
REMARK  146  A    between atoms: _383  and  _384
REMARK  147  A    between atoms: _384  and  _385
REMARK  148  A    between atoms: _394  and  _395
REMARK  149  A    between atoms: _403  and  _405
REMARK  150  A    between atoms: _405  and  _406
REMARK  151  A    between atoms: _405  and  _408
REMARK  152  A    between atoms: _408  and  _409
REMARK  153  A    between atoms: _412  and  _414
REMARK  154  A    between atoms: _414  and  _415
REMARK  155  A    between atoms: _414  and  _417
REMARK  156  A    between atoms: _417  and  _418
REMARK  157  A    between atoms: _423  and  _424
REMARK  158  A    between atoms: _426  and  _428
REMARK  159  A    between atoms: _428  and  _429
REMARK  160  A    between atoms: _428  and  _431
REMARK  161  A    between atoms: _431  and  _432
REMARK  162  A    between atoms: _437  and  _438
REMARK  163  A    between atoms: _440  and  _442
REMARK  164  A    between atoms: _442  and  _443
REMARK  165  A    between atoms: _442  and  _445
REMARK  166  A    between atoms: _445  and  _446
REMARK  167  A    between atoms: _451  and  _452
REMARK  168  A    between atoms: _454  and  _456
REMARK  169  A    between atoms: _456  and  _457
REMARK  170  A    between atoms: _456  and  _459
REMARK  171  A    between atoms: _459  and  _460
REMARK  172  A    between atoms: _460  and  _461
REMARK  173  A    between atoms: _461  and  _462
REMARK  174  A    between atoms: _471  and  _473
REMARK  175  A    between atoms: _473  and  _474
REMARK  176  A    between atoms: _473  and  _476
REMARK  177  A    between atoms: _476  and  _477
REMARK  178  A    between atoms: _477  and  _478
REMARK  179  A    between atoms: _478  and  _479
REMARK  180  A    between atoms: _488  and  _490
REMARK  181  A    between atoms: _490  and  _491
REMARK  182  A    between atoms: _493  and  _495
REMARK  183  A    between atoms: _495  and  _496
REMARK  184  A    between atoms: _499  and  _501
REMARK  185  A    between atoms: _501  and  _502
REMARK  186  A    between atoms: _501  and  _504
REMARK  187  A    between atoms: _504  and  _505
REMARK  188  A    between atoms: _511  and  _512
REMARK  189  A    between atoms: _517  and  _519
REMARK  190  A    between atoms: _519  and  _520
REMARK  191  A    between atoms: _522  and  _524
REMARK  192  A    between atoms: _524  and  _525
REMARK  193  A    between atoms: _524  and  _527
REMARK  194  A    between atoms: _527  and  _528
REMARK  195  A    between atoms: _534  and  _536
REMARK  196  A    between atoms: _536  and  _537
REMARK  197  A    between atoms: _536  and  _539
REMARK  198  A    between atoms: _539  and  _540
REMARK  199  A    between atoms: _545  and  _547
REMARK  200  A    between atoms: _547  and  _548
REMARK  201  A    between atoms: _547  and  _550
REMARK  202  A    between atoms: _550  and  _551
REMARK  203  A    between atoms: _551  and  _552
REMARK  204  A    between atoms: _552  and  _553
REMARK  205  A    between atoms: _553  and  ZN_801
REMARK  206  A    between atoms: _555  and  _557
REMARK  207  A    between atoms: _557  and  _558
REMARK  208  A    between atoms: _561  and  _563
REMARK  209  A    between atoms: _563  and  _564
REMARK  210  A    between atoms: _566  and  _568
REMARK  211  A    between atoms: _568  and  _569
REMARK  212  A    between atoms: _568  and  _571
REMARK  213  A    between atoms: _571  and  _572
REMARK  214  A    between atoms: _575  and  _577
REMARK  215  A    between atoms: _577  and  _578
REMARK  216  A    between atoms: _581  and  _583
REMARK  217  A    between atoms: _583  and  _584
REMARK  218  A    between atoms: _583  and  _586
REMARK  219  A    between atoms: _586  and  _587
REMARK  220  A    between atoms: _587  and  _588
REMARK  221  A    between atoms: _591  and  _593
REMARK  222  A    between atoms: _593  and  _594
REMARK  223  A    between atoms: _593  and  _596
REMARK  224  A    between atoms: _596  and  _597
REMARK  225  A    between atoms: _597  and  _598
REMARK  226  A    between atoms: _598  and  _599
REMARK  227  A    between atoms: _599  and  _600
REMARK  228  A    between atoms: _604  and  _606
REMARK  229  A    between atoms: _606  and  _607
REMARK  230  A    between atoms: _606  and  _609
REMARK  231  A    between atoms: _609  and  _610
REMARK  232  A    between atoms: _616  and  _618
REMARK  233  A    between atoms: _618  and  _619
REMARK  234  A    between atoms: _618  and  _621
REMARK  235  A    between atoms: _621  and  _622
REMARK  236  A    between atoms: _628  and  _630
REMARK  237  A    between atoms: _630  and  _631
REMARK  238  A    between atoms: _633  and  _635
REMARK  239  A    between atoms: _635  and  _636
REMARK  240  A    between atoms: _635  and  _638
REMARK  241  A    between atoms: _641  and  _643
REMARK  242  A    between atoms: _643  and  _644
REMARK  243  A    between atoms: _643  and  _646
REMARK  244  A    between atoms: _646  and  _647
REMARK  245  A    between atoms: _647  and  _648
REMARK  246  A    between atoms: _648  and  _649
REMARK  247  A    between atoms: _649  and  _650
REMARK  248  A    between atoms: _654  and  _656
REMARK  249  A    between atoms: _656  and  _657
REMARK  250  A    between atoms: _656  and  _659
REMARK  251  A    between atoms: _659  and  _660
REMARK  252  A    between atoms: _666  and  _668
REMARK  253  A    between atoms: _668  and  _669
REMARK  254  A    between atoms: _668  and  _671
REMARK  255  A    between atoms: _671  and  _672
REMARK  256  A    between atoms: _677  and  _679
REMARK  257  A    between atoms: _679  and  _680
REMARK  258  A    between atoms: _679  and  _682
REMARK  259  A    between atoms: _682  and  _683
REMARK  260  A    between atoms: _688  and  _690
REMARK  261  A    between atoms: _690  and  _691
REMARK  262  A    between atoms: _690  and  _693
REMARK  263  A    between atoms: _696  and  _698
REMARK  264  A    between atoms: _698  and  _699
REMARK  265  A    between atoms: _698  and  _701
REMARK  266  A    between atoms: _701  and  _702
REMARK  267  A    between atoms: _706  and  _707
REMARK  268  A    between atoms: _712  and  _714
REMARK  269  A    between atoms: _714  and  _715
REMARK  270  A    between atoms: _714  and  _717
REMARK  271  A    between atoms: _717  and  _718
REMARK  272  A    between atoms: _723  and  _724
REMARK  273  A    between atoms: _726  and  _728
REMARK  274  A    between atoms: _728  and  _729
REMARK  275  A    between atoms: _728  and  _731
REMARK  276  A    between atoms: _731  and  _732
REMARK  277  A    between atoms: _732  and  _733
REMARK  278  A    between atoms: _733  and  _734
REMARK  279  A    between atoms: _743  and  _745
REMARK  280  A    between atoms: _745  and  _746
REMARK  281  A    between atoms: _745  and  _748
REMARK  282  A    between atoms: _748  and  _749
REMARK  283  A    between atoms: _754  and  _755
REMARK  284  A    between atoms: _757  and  _759
REMARK  285  A    between atoms: _759  and  _760
REMARK  286  A    between atoms: _759  and  _762
REMARK  287  A    between atoms: _762  and  _763
REMARK  288  A    between atoms: _769  and  _771
REMARK  289  A    between atoms: _771  and  _772
REMARK  290  A    between atoms: _771  and  _774
REMARK  291  A    between atoms: _774  and  _775
REMARK  292  A    between atoms: _777  and  _779
REMARK  293  A    between atoms: _779  and  _780
REMARK  294  A    between atoms: _779  and  _782
REMARK  295  A    between atoms: _782  and  _783
REMARK  296  A    between atoms: _789  and  _791
REMARK  297  A    between atoms: _791  and  _792
REMARK  298  A    between atoms: _791  and  _794
REMARK  299  A    between atoms: _794  and  _795
REMARK  300  A    between atoms: _795  and  _796
REMARK                            x       y       z     vdW  Elec       q    Type
REMARK                         _______ _______ _______ _____ _____    ______ ____
ROOT
ATOM      1  CG  TYR A   1      -2.645  -4.188 -26.182  0.00  0.00    -0.020 A 
ATOM      2  CD2 TYR A   1      -1.850  -3.543 -25.244  0.00  0.00    -0.001 A 
ATOM      3  CE2 TYR A   1      -0.576  -4.023 -24.916  0.00  0.00    +0.036 A 
ATOM      4  CZ  TYR A   1      -0.090  -5.158 -25.552  0.00  0.00    +0.134 A 
ATOM      5  CE1 TYR A   1      -0.865  -5.818 -26.494  0.00  0.00    +0.036 A 
ATOM      6  CD1 TYR A   1      -2.136  -5.329 -26.806  0.00  0.00    -0.001 A 
ENDROOT
BRANCH   4   7
ATOM      7  OH  TYR A   1       1.148  -5.648 -25.217  0.00  0.00    -0.506 OA
ATOM      8  HH  TYR A   1       1.052  -6.563 -24.850  0.00  0.00    +0.292 HD
ENDBRANCH   4   7
BRANCH   1   9
ATOM      9  CB  TYR A   1      -4.024  -3.640 -26.547  0.00  0.00    +0.051 C 
BRANCH   9  10
ATOM     10  CA  TYR A   1      -3.963  -2.619 -27.704  0.00  0.00    +0.137 C 
BRANCH  10  11
ATOM     11  N   TYR A   1      -5.280  -2.071 -28.039  0.00  0.00    -0.239 NA
ATOM     12  H   TYR A   1      -6.132  -2.454 -27.583  0.00  0.00    +0.142 HD
ENDBRANCH  10  11
BRANCH  10  13
ATOM     13  C   TYR A   1      -3.299  -3.243 -28.930  0.00  0.00    +0.224 C 
ATOM     14  O   TYR A   1      -2.118  -2.999 -29.185  0.00  0.00    -0.287 OA
ENDBRANCH  10  13
ENDBRANCH   9  10
ENDBRANCH   1   9
TORSDOF 5
REMARK  Name = ../refined-set-2016/2xyd/2xyd_pocket.pdb
REMARK  300 active torsions:
REMARK  status: ('A' for Active; 'I' for Inactive)
REMARK    1  A    between atoms: _1  and  _3
REMARK    2  A    between atoms: _3  and  _4
REMARK    3  A    between atoms: _3  and  _6
REMARK    4  A    between atoms: _6  and  _7
REMARK    5  A    between atoms: _10  and  _12
REMARK    6  A    between atoms: _12  and  _13
REMARK    7  A    between atoms: _12  and  _15
REMARK    8  A    between atoms: _15  and  _16
REMARK    9  A    between atoms: _21  and  _22
REMARK   10  A    between atoms: _24  and  _26
REMARK   11  A    between atoms: _26  and  _27
REMARK   12  A    between atoms: _26  and  _29
REMARK   13  A    between atoms: _29  and  _30
REMARK   14  A    between atoms: _35  and  _36
REMARK   15  A    between atoms: _38  and  _40
REMARK   16  A    between atoms: _40  and  _41
REMARK   17  A    between atoms: _40  and  _43
REMARK   18  A    between atoms: _43  and  _44
REMARK   19  A    between atoms: _47  and  _49
REMARK   20  A    between atoms: _49  and  _50
REMARK   21  A    between atoms: _49  and  _52
REMARK   22  A    between atoms: _52  and  _53
REMARK   23  A    between atoms: _63  and  _65
REMARK   24  A    between atoms: _65  and  _66
REMARK   25  A    between atoms: _65  and  _68
REMARK   26  A    between atoms: _68  and  _69
REMARK   27  A    between atoms: _69  and  _70
REMARK   28  A    between atoms: _75  and  _77
REMARK   29  A    between atoms: _77  and  _78
REMARK   30  A    between atoms: _77  and  _80
REMARK   31  A    between atoms: _80  and  _81
REMARK   32  A    between atoms: _83  and  _85
REMARK   33  A    between atoms: _85  and  _86
REMARK   34  A    between atoms: _85  and  _88
REMARK   35  A    between atoms: _88  and  _89
REMARK   36  A    between atoms: _99  and  _101
REMARK   37  A    between atoms: _101  and  _102
REMARK   38  A    between atoms: _101  and  _104
REMARK   39  A    between atoms: _104  and  _105
REMARK   40  A    between atoms: _105  and  _106
REMARK   41  A    between atoms: _109  and  _111
REMARK   42  A    between atoms: _111  and  _112
REMARK   43  A    between atoms: _111  and  _114
REMARK   44  A    between atoms: _114  and  _115
REMARK   45  A    between atoms: _120  and  _122
REMARK   46  A    between atoms: _122  and  _123
REMARK   47  A    between atoms: _122  and  _125
REMARK   48  A    between atoms: _128  and  _130
REMARK   49  A    between atoms: _130  and  _131
REMARK   50  A    between atoms: _130  and  _133
REMARK   51  A    between atoms: _135  and  _137
REMARK   52  A    between atoms: _137  and  _138
REMARK   53  A    between atoms: _137  and  _140
REMARK   54  A    between atoms: _140  and  _141
REMARK   55  A    between atoms: _146  and  _148
REMARK   56  A    between atoms: _148  and  _149
REMARK   57  A    between atoms: _152  and  _154
REMARK   58  A    between atoms: _154  and  _155
REMARK   59  A    between atoms: _154  and  _157
REMARK   60  A    between atoms: _157  and  _158
REMARK   61  A    between atoms: _160  and  _162
REMARK   62  A    between atoms: _162  and  _163
REMARK   63  A    between atoms: _166  and  _168
REMARK   64  A    between atoms: _168  and  _169
REMARK   65  A    between atoms: _168  and  _171
REMARK   66  A    between atoms: _171  and  _172
REMARK   67  A    between atoms: _182  and  _184
REMARK   68  A    between atoms: _184  and  _185
REMARK   69  A    between atoms: _184  and  _187
REMARK   70  A    between atoms: _187  and  _188
REMARK   71  A    between atoms: _191  and  _193
REMARK   72  A    between atoms: _193  and  _194
REMARK   73  A    between atoms: _193  and  _196
REMARK   74  A    between atoms: _196  and  _197
REMARK   75  A    between atoms: _202  and  _203
REMARK   76  A    between atoms: _205  and  _207
REMARK   77  A    between atoms: _207  and  _208
REMARK   78  A    between atoms: _207  and  _210
REMARK   79  A    between atoms: _210  and  _211
REMARK   80  A    between atoms: _211  and  _212
REMARK   81  A    between atoms: _212  and  _213
REMARK   82  A    between atoms: _222  and  _224
REMARK   83  A    between atoms: _224  and  _225
REMARK   84  A    between atoms: _224  and  _227
REMARK   85  A    between atoms: _227  and  _228
REMARK   86  A    between atoms: _231  and  _233
REMARK   87  A    between atoms: _233  and  _234
REMARK   88  A    between atoms: _233  and  _236
REMARK   89  A    between atoms: _236  and  _237
REMARK   90  A    between atoms: _237  and  _238
REMARK   91  A    between atoms: _238  and  _239
REMARK   92  A    between atoms: _239  and  _240
REMARK   93  A    between atoms: _244  and  _246
REMARK   94  A    between atoms: _246  and  _247
REMARK   95  A    between atoms: _246  and  _249
REMARK   96  A    between atoms: _249  and  _250
REMARK   97  A    between atoms: _250  and  _251
REMARK   98  A    between atoms: _256  and  _258
REMARK   99  A    between atoms: _258  and  _259
REMARK  100  A    between atoms: _258  and  _261
REMARK  101  A    between atoms: _261  and  _262
REMARK  102  A    between atoms: _262  and  _263
REMARK  103  A    between atoms: _263  and  _264
REMARK  104  A    between atoms: _273  and  _275
REMARK  105  A    between atoms: _275  and  _276
REMARK  106  A    between atoms: _275  and  _278
REMARK  107  A    between atoms: _278  and  _279
REMARK  108  A    between atoms: _282  and  _284
REMARK  109  A    between atoms: _284  and  _285
REMARK  110  A    between atoms: _284  and  _287
REMARK  111  A    between atoms: _287  and  _288
REMARK  112  A    between atoms: _288  and  _289
REMARK  113  A    between atoms: _291  and  _293
REMARK  114  A    between atoms: _293  and  _294
REMARK  115  A    between atoms: _293  and  _296
REMARK  116  A    between atoms: _296  and  _297
REMARK  117  A    between atoms: _300  and  _302
REMARK  118  A    between atoms: _302  and  _303
REMARK  119  A    between atoms: _302  and  _305
REMARK  120  A    between atoms: _305  and  _306
REMARK  121  A    between atoms: _306  and  _307
REMARK  122  A    between atoms: _312  and  _314
REMARK  123  A    between atoms: _314  and  _315
REMARK  124  A    between atoms: _314  and  _317
REMARK  125  A    between atoms: _317  and  _318
REMARK  126  A    between atoms: _321  and  _323
REMARK  127  A    between atoms: _323  and  _324
REMARK  128  A    between atoms: _323  and  _326
REMARK  129  A    between atoms: _326  and  _327
REMARK  130  A    between atoms: _329  and  _331
REMARK  131  A    between atoms: _331  and  _332
REMARK  132  A    between atoms: _331  and  _334
REMARK  133  A    between atoms: _334  and  _335
REMARK  134  A    between atoms: _338  and  _340
REMARK  135  A    between atoms: _340  and  _341
REMARK  136  A    between atoms: _340  and  _343
REMARK  137  A    between atoms: _346  and  _348
REMARK  138  A    between atoms: _348  and  _349
REMARK  139  A    between atoms: _348  and  _351
REMARK  140  A    between atoms: _351  and  _352
REMARK  141  A    between atoms: _357  and  _359
REMARK  142  A    between atoms: _370  and  _373
REMARK  143  A    between atoms: _373  and  _374
REMARK  144  A    between atoms: _374  and  _375
REMARK  145  A    between atoms: _380  and  _383
REMARK  146  A    between atoms: _383  and  _384
REMARK  147  A    between atoms: _384  and  _385
REMARK  148  A    between atoms: _394  and  _395
REMARK  149  A    between atoms: _403  and  _405
REMARK  150  A    between atoms: _405  and  _406
REMARK  151  A    between atoms: _405  and  _408
REMARK  152  A    between atoms: _408  and  _409
REMARK  153  A    between atoms: _412  and  _414
REMARK  154  A    between atoms: _414  and  _415
REMARK  155  A    between atoms: _414  and  _417
REMARK  156  A    between atoms: _417  and  _418
REMARK  157  A    between atoms: _423  and  _424
REMARK  158  A    between atoms: _426  and  _428
REMARK  159  A    between atoms: _428  and  _429
REMARK  160  A    between atoms: _428  and  _431
REMARK  161  A    between atoms: _431  and  _432
REMARK  162  A    between atoms: _437  and  _438
REMARK  163  A    between atoms: _440  and  _442
REMARK  164  A    between atoms: _442  and  _443
REMARK  165  A    between atoms: _442  and  _445
REMARK  166  A    between atoms: _445  and  _446
REMARK  167  A    between atoms: _451  and  _452
REMARK  168  A    between atoms: _454  and  _456
REMARK  169  A    between atoms: _456  and  _457
REMARK  170  A    between atoms: _456  and  _459
REMARK  171  A    between atoms: _459  and  _460
REMARK  172  A    between atoms: _460  and  _461
REMARK  173  A    between atoms: _461  and  _462
REMARK  174  A    between atoms: _471  and  _473
REMARK  175  A    between atoms: _473  and  _474
REMARK  176  A    between atoms: _473  and  _476
REMARK  177  A    between atoms: _476  and  _477
REMARK  178  A    between atoms: _477  and  _478
REMARK  179  A    between atoms: _478  and  _479
REMARK  180  A    between atoms: _488  and  _490
REMARK  181  A    between atoms: _490  and  _491
REMARK  182  A    between atoms: _493  and  _495
REMARK  183  A    between atoms: _495  and  _496
REMARK  184  A    between atoms: _499  and  _501
REMARK  185  A    between atoms: _501  and  _502
REMARK  186  A    between atoms: _501  and  _504
REMARK  187  A    between atoms: _504  and  _505
REMARK  188  A    between atoms: _511  and  _512
REMARK  189  A    between atoms: _517  and  _519
REMARK  190  A    between atoms: _519  and  _520
REMARK  191  A    between atoms: _522  and  _524
REMARK  192  A    between atoms: _524  and  _525
REMARK  193  A    between atoms: _524  and  _527
REMARK  194  A    between atoms: _527  and  _528
REMARK  195  A    between atoms: _534  and  _536
REMARK  196  A    between atoms: _536  and  _537
REMARK  197  A    between atoms: _536  and  _539
REMARK  198  A    between atoms: _539  and  _540
REMARK  199  A    between atoms: _545  and  _547
REMARK  200  A    between atoms: _547  and  _548
REMARK  201  A    between atoms: _547  and  _550
REMARK  202  A    between atoms: _550  and  _551
REMARK  203  A    between atoms: _551  and  _552
REMARK  204  A    between atoms: _552  and  _553
REMARK  205  A    between atoms: _553  and  ZN_801
REMARK  206  A    between atoms: _555  and  _557
REMARK  207  A    between atoms: _557  and  _558
REMARK  208  A    between atoms: _561  and  _563
REMARK  209  A    between atoms: _563  and  _564
REMARK  210  A    between atoms: _566  and  _568
REMARK  211  A    between atoms: _568  and  _569
REMARK  212  A    between atoms: _568  and  _571
REMARK  213  A    between atoms: _571  and  _572
REMARK  214  A    between atoms: _575  and  _577
REMARK  215  A    between atoms: _577  and  _578
REMARK  216  A    between atoms: _581  and  _583
REMARK  217  A    between atoms: _583  and  _584
REMARK  218  A    between atoms: _583  and  _586
REMARK  219  A    between atoms: _586  and  _587
REMARK  220  A    between atoms: _587  and  _588
REMARK  221  A    between atoms: _591  and  _593
REMARK  222  A    between atoms: _593  and  _594
REMARK  223  A    between atoms: _593  and  _596
REMARK  224  A    between atoms: _596  and  _597
REMARK  225  A    between atoms: _597  and  _598
REMARK  226  A    between atoms: _598  and  _599
REMARK  227  A    between atoms: _599  and  _600
REMARK  228  A    between atoms: _604  and  _606
REMARK  229  A    between atoms: _606  and  _607
REMARK  230  A    between atoms: _606  and  _609
REMARK  231  A    between atoms: _609  and  _610
REMARK  232  A    between atoms: _616  and  _618
REMARK  233  A    between atoms: _618  and  _619
REMARK  234  A    between atoms: _618  and  _621
REMARK  235  A    between atoms: _621  and  _622
REMARK  236  A    between atoms: _628  and  _630
REMARK  237  A    between atoms: _630  and  _631
REMARK  238  A    between atoms: _633  and  _635
REMARK  239  A    between atoms: _635  and  _636
REMARK  240  A    between atoms: _635  and  _638
REMARK  241  A    between atoms: _641  and  _643
REMARK  242  A    between atoms: _643  and  _644
REMARK  243  A    between atoms: _643  and  _646
REMARK  244  A    between atoms: _646  and  _647
REMARK  245  A    between atoms: _647  and  _648
REMARK  246  A    between atoms: _648  and  _649
REMARK  247  A    between atoms: _649  and  _650
REMARK  248  A    between atoms: _654  and  _656
REMARK  249  A    between atoms: _656  and  _657
REMARK  250  A    between atoms: _656  and  _659
REMARK  251  A    between atoms: _659  and  _660
REMARK  252  A    between atoms: _666  and  _668
REMARK  253  A    between atoms: _668  and  _669
REMARK  254  A    between atoms: _668  and  _671
REMARK  255  A    between atoms: _671  and  _672
REMARK  256  A    between atoms: _677  and  _679
REMARK  257  A    between atoms: _679  and  _680
REMARK  258  A    between atoms: _679  and  _682
REMARK  259  A    between atoms: _682  and  _683
REMARK  260  A    between atoms: _688  and  _690
REMARK  261  A    between atoms: _690  and  _691
REMARK  262  A    between atoms: _690  and  _693
REMARK  263  A    between atoms: _696  and  _698
REMARK  264  A    between atoms: _698  and  _699
REMARK  265  A    between atoms: _698  and  _701
REMARK  266  A    between atoms: _701  and  _702
REMARK  267  A    between atoms: _706  and  _707
REMARK  268  A    between atoms: _712  and  _714
REMARK  269  A    between atoms: _714  and  _715
REMARK  270  A    between atoms: _714  and  _717
REMARK  271  A    between atoms: _717  and  _718
REMARK  272  A    between atoms: _723  and  _724
REMARK  273  A    between atoms: _726  and  _728
REMARK  274  A    between atoms: _728  and  _729
REMARK  275  A    between atoms: _728  and  _731
REMARK  276  A    between atoms: _731  and  _732
REMARK  277  A    between atoms: _732  and  _733
REMARK  278  A    between atoms: _733  and  _734
REMARK  279  A    between atoms: _743  and  _745
REMARK  280  A    between atoms: _745  and  _746
REMARK  281  A    between atoms: _745  and  _748
REMARK  282  A    between atoms: _748  and  _749
REMARK  283  A    between atoms: _754  and  _755
REMARK  284  A    between atoms: _757  and  _759
REMARK  285  A    between atoms: _759  and  _760
REMARK  286  A    between atoms: _759  and  _762
REMARK  287  A    between atoms: _762  and  _763
REMARK  288  A    between atoms: _769  and  _771
REMARK  289  A    between atoms: _771  and  _772
REMARK  290  A    between atoms: _771  and  _774
REMARK  291  A    between atoms: _774  and  _775
REMARK  292  A    between atoms: _777  and  _779
REMARK  293  A    between atoms: _779  and  _780
REMARK  294  A    between atoms: _779  and  _782
REMARK  295  A    between atoms: _782  and  _783
REMARK  296  A    between atoms: _789  and  _791
REMARK  297  A    between atoms: _791  and  _792
REMARK  298  A    between atoms: _791  and  _794
REMARK  299  A    between atoms: _794  and  _795
REMARK  300  A    between atoms: _795  and  _796
REMARK                            x       y       z     vdW  Elec       q    Type
REMARK                         _______ _______ _______ _____ _____    ______ ____
ROOT
ATOM      1  CG  TYR A   1      -4.780 -19.714  -7.188  0.00  0.00    -0.020 A 
ATOM      2  CD2 TYR A   1      -5.192 -18.539  -7.818  0.00  0.00    -0.001 A 
ATOM      3  CE2 TYR A   1      -4.658 -18.160  -9.037  0.00  0.00    +0.036 A 
ATOM      4  CZ  TYR A   1      -3.710 -18.972  -9.651  0.00  0.00    +0.134 A 
ATOM      5  CE1 TYR A   1      -3.301 -20.153  -9.055  0.00  0.00    +0.036 A 
ATOM      6  CD1 TYR A   1      -3.839 -20.521  -7.834  0.00  0.00    -0.001 A 
ENDROOT
BRANCH   4   7
ATOM      7  OH  TYR A   1      -3.177 -18.601 -10.864  0.00  0.00    -0.506 OA
ATOM      8  HH  TYR A   1      -2.523 -19.284 -11.159  0.00  0.00    +0.292 HD
ENDBRANCH   4   7
BRANCH   1   9
ATOM      9  CB  TYR A   1      -5.383 -20.137  -5.875  0.00  0.00    +0.051 C 
BRANCH   9  10
ATOM     10  CA  TYR A   1      -6.606 -21.038  -6.095  0.00  0.00    +0.137 C 
BRANCH  10  11
ATOM     11  N   TYR A   1      -7.696 -20.294  -6.719  0.00  0.00    -0.239 NA
ATOM     12  H   TYR A   1      -7.915 -19.329  -6.400  0.00  0.00    +0.142 HD
ENDBRANCH  10  11
BRANCH  10  13
ATOM     13  C   TYR A   1      -7.040 -21.741  -4.819  0.00  0.00    +0.224 C 
ATOM     14  O   TYR A   1      -6.257 -22.497  -4.231  0.00  0.00    -0.287 OA
ENDBRANCH  10  13
ENDBRANCH   9  10
ENDBRANCH   1   9
TORSDOF 5
REMARK  Name = ../refined-set-2016/2xyd/2xyd_pocket.pdb
REMARK  300 active torsions:
REMARK  status: ('A' for Active; 'I' for Inactive)
REMARK    1  A    between atoms: _1  and  _3
REMARK    2  A    between atoms: _3  and  _4
REMARK    3  A    between atoms: _3  and  _6
REMARK    4  A    between atoms: _6  and  _7
REMARK    5  A    between atoms: _10  and  _12
REMARK    6  A    between atoms: _12  and  _13
REMARK    7  A    between atoms: _12  and  _15
REMARK    8  A    between atoms: _15  and  _16
REMARK    9  A    between atoms: _21  and  _22
REMARK   10  A    between atoms: _24  and  _26
REMARK   11  A    between atoms: _26  and  _27
REMARK   12  A    between atoms: _26  and  _29
REMARK   13  A    between atoms: _29  and  _30
REMARK   14  A    between atoms: _35  and  _36
REMARK   15  A    between atoms: _38  and  _40
REMARK   16  A    between atoms: _40  and  _41
REMARK   17  A    between atoms: _40  and  _43
REMARK   18  A    between atoms: _43  and  _44
REMARK   19  A    between atoms: _47  and  _49
REMARK   20  A    between atoms: _49  and  _50
REMARK   21  A    between atoms: _49  and  _52
REMARK   22  A    between atoms: _52  and  _53
REMARK   23  A    between atoms: _63  and  _65
REMARK   24  A    between atoms: _65  and  _66
REMARK   25  A    between atoms: _65  and  _68
REMARK   26  A    between atoms: _68  and  _69
REMARK   27  A    between atoms: _69  and  _70
REMARK   28  A    between atoms: _75  and  _77
REMARK   29  A    between atoms: _77  and  _78
REMARK   30  A    between atoms: _77  and  _80
REMARK   31  A    between atoms: _80  and  _81
REMARK   32  A    between atoms: _83  and  _85
REMARK   33  A    between atoms: _85  and  _86
REMARK   34  A    between atoms: _85  and  _88
REMARK   35  A    between atoms: _88  and  _89
REMARK   36  A    between atoms: _99  and  _101
REMARK   37  A    between atoms: _101  and  _102
REMARK   38  A    between atoms: _101  and  _104
REMARK   39  A    between atoms: _104  and  _105
REMARK   40  A    between atoms: _105  and  _106
REMARK   41  A    between atoms: _109  and  _111
REMARK   42  A    between atoms: _111  and  _112
REMARK   43  A    between atoms: _111  and  _114
REMARK   44  A    between atoms: _114  and  _115
REMARK   45  A    between atoms: _120  and  _122
REMARK   46  A    between atoms: _122  and  _123
REMARK   47  A    between atoms: _122  and  _125
REMARK   48  A    between atoms: _128  and  _130
REMARK   49  A    between atoms: _130  and  _131
REMARK   50  A    between atoms: _130  and  _133
REMARK   51  A    between atoms: _135  and  _137
REMARK   52  A    between atoms: _137  and  _138
REMARK   53  A    between atoms: _137  and  _140
REMARK   54  A    between atoms: _140  and  _141
REMARK   55  A    between atoms: _146  and  _148
REMARK   56  A    between atoms: _148  and  _149
REMARK   57  A    between atoms: _152  and  _154
REMARK   58  A    between atoms: _154  and  _155
REMARK   59  A    between atoms: _154  and  _157
REMARK   60  A    between atoms: _157  and  _158
REMARK   61  A    between atoms: _160  and  _162
REMARK   62  A    between atoms: _162  and  _163
REMARK   63  A    between atoms: _166  and  _168
REMARK   64  A    between atoms: _168  and  _169
REMARK   65  A    between atoms: _168  and  _171
REMARK   66  A    between atoms: _171  and  _172
REMARK   67  A    between atoms: _182  and  _184
REMARK   68  A    between atoms: _184  and  _185
REMARK   69  A    between atoms: _184  and  _187
REMARK   70  A    between atoms: _187  and  _188
REMARK   71  A    between atoms: _191  and  _193
REMARK   72  A    between atoms: _193  and  _194
REMARK   73  A    between atoms: _193  and  _196
REMARK   74  A    between atoms: _196  and  _197
REMARK   75  A    between atoms: _202  and  _203
REMARK   76  A    between atoms: _205  and  _207
REMARK   77  A    between atoms: _207  and  _208
REMARK   78  A    between atoms: _207  and  _210
REMARK   79  A    between atoms: _210  and  _211
REMARK   80  A    between atoms: _211  and  _212
REMARK   81  A    between atoms: _212  and  _213
REMARK   82  A    between atoms: _222  and  _224
REMARK   83  A    between atoms: _224  and  _225
REMARK   84  A    between atoms: _224  and  _227
REMARK   85  A    between atoms: _227  and  _228
REMARK   86  A    between atoms: _231  and  _233
REMARK   87  A    between atoms: _233  and  _234
REMARK   88  A    between atoms: _233  and  _236
REMARK   89  A    between atoms: _236  and  _237
REMARK   90  A    between atoms: _237  and  _238
REMARK   91  A    between atoms: _238  and  _239
REMARK   92  A    between atoms: _239  and  _240
REMARK   93  A    between atoms: _244  and  _246
REMARK   94  A    between atoms: _246  and  _247
REMARK   95  A    between atoms: _246  and  _249
REMARK   96  A    between atoms: _249  and  _250
REMARK   97  A    between atoms: _250  and  _251
REMARK   98  A    between atoms: _256  and  _258
REMARK   99  A    between atoms: _258  and  _259
REMARK  100  A    between atoms: _258  and  _261
REMARK  101  A    between atoms: _261  and  _262
REMARK  102  A    between atoms: _262  and  _263
REMARK  103  A    between atoms: _263  and  _264
REMARK  104  A    between atoms: _273  and  _275
REMARK  105  A    between atoms: _275  and  _276
REMARK  106  A    between atoms: _275  and  _278
REMARK  107  A    between atoms: _278  and  _279
REMARK  108  A    between atoms: _282  and  _284
REMARK  109  A    between atoms: _284  and  _285
REMARK  110  A    between atoms: _284  and  _287
REMARK  111  A    between atoms: _287  and  _288
REMARK  112  A    between atoms: _288  and  _289
REMARK  113  A    between atoms: _291  and  _293
REMARK  114  A    between atoms: _293  and  _294
REMARK  115  A    between atoms: _293  and  _296
REMARK  116  A    between atoms: _296  and  _297
REMARK  117  A    between atoms: _300  and  _302
REMARK  118  A    between atoms: _302  and  _303
REMARK  119  A    between atoms: _302  and  _305
REMARK  120  A    between atoms: _305  and  _306
REMARK  121  A    between atoms: _306  and  _307
REMARK  122  A    between atoms: _312  and  _314
REMARK  123  A    between atoms: _314  and  _315
REMARK  124  A    between atoms: _314  and  _317
REMARK  125  A    between atoms: _317  and  _318
REMARK  126  A    between atoms: _321  and  _323
REMARK  127  A    between atoms: _323  and  _324
REMARK  128  A    between atoms: _323  and  _326
REMARK  129  A    between atoms: _326  and  _327
REMARK  130  A    between atoms: _329  and  _331
REMARK  131  A    between atoms: _331  and  _332
REMARK  132  A    between atoms: _331  and  _334
REMARK  133  A    between atoms: _334  and  _335
REMARK  134  A    between atoms: _338  and  _340
REMARK  135  A    between atoms: _340  and  _341
REMARK  136  A    between atoms: _340  and  _343
REMARK  137  A    between atoms: _346  and  _348
REMARK  138  A    between atoms: _348  and  _349
REMARK  139  A    between atoms: _348  and  _351
REMARK  140  A    between atoms: _351  and  _352
REMARK  141  A    between atoms: _357  and  _359
REMARK  142  A    between atoms: _370  and  _373
REMARK  143  A    between atoms: _373  and  _374
REMARK  144  A    between atoms: _374  and  _375
REMARK  145  A    between atoms: _380  and  _383
REMARK  146  A    between atoms: _383  and  _384
REMARK  147  A    between atoms: _384  and  _385
REMARK  148  A    between atoms: _394  and  _395
REMARK  149  A    between atoms: _403  and  _405
REMARK  150  A    between atoms: _405  and  _406
REMARK  151  A    between atoms: _405  and  _408
REMARK  152  A    between atoms: _408  and  _409
REMARK  153  A    between atoms: _412  and  _414
REMARK  154  A    between atoms: _414  and  _415
REMARK  155  A    between atoms: _414  and  _417
REMARK  156  A    between atoms: _417  and  _418
REMARK  157  A    between atoms: _423  and  _424
REMARK  158  A    between atoms: _426  and  _428
REMARK  159  A    between atoms: _428  and  _429
REMARK  160  A    between atoms: _428  and  _431
REMARK  161  A    between atoms: _431  and  _432
REMARK  162  A    between atoms: _437  and  _438
REMARK  163  A    between atoms: _440  and  _442
REMARK  164  A    between atoms: _442  and  _443
REMARK  165  A    between atoms: _442  and  _445
REMARK  166  A    between atoms: _445  and  _446
REMARK  167  A    between atoms: _451  and  _452
REMARK  168  A    between atoms: _454  and  _456
REMARK  169  A    between atoms: _456  and  _457
REMARK  170  A    between atoms: _456  and  _459
REMARK  171  A    between atoms: _459  and  _460
REMARK  172  A    between atoms: _460  and  _461
REMARK  173  A    between atoms: _461  and  _462
REMARK  174  A    between atoms: _471  and  _473
REMARK  175  A    between atoms: _473  and  _474
REMARK  176  A    between atoms: _473  and  _476
REMARK  177  A    between atoms: _476  and  _477
REMARK  178  A    between atoms: _477  and  _478
REMARK  179  A    between atoms: _478  and  _479
REMARK  180  A    between atoms: _488  and  _490
REMARK  181  A    between atoms: _490  and  _491
REMARK  182  A    between atoms: _493  and  _495
REMARK  183  A    between atoms: _495  and  _496
REMARK  184  A    between atoms: _499  and  _501
REMARK  185  A    between atoms: _501  and  _502
REMARK  186  A    between atoms: _501  and  _504
REMARK  187  A    between atoms: _504  and  _505
REMARK  188  A    between atoms: _511  and  _512
REMARK  189  A    between atoms: _517  and  _519
REMARK  190  A    between atoms: _519  and  _520
REMARK  191  A    between atoms: _522  and  _524
REMARK  192  A    between atoms: _524  and  _525
REMARK  193  A    between atoms: _524  and  _527
REMARK  194  A    between atoms: _527  and  _528
REMARK  195  A    between atoms: _534  and  _536
REMARK  196  A    between atoms: _536  and  _537
REMARK  197  A    between atoms: _536  and  _539
REMARK  198  A    between atoms: _539  and  _540
REMARK  199  A    between atoms: _545  and  _547
REMARK  200  A    between atoms: _547  and  _548
REMARK  201  A    between atoms: _547  and  _550
REMARK  202  A    between atoms: _550  and  _551
REMARK  203  A    between atoms: _551  and  _552
REMARK  204  A    between atoms: _552  and  _553
REMARK  205  A    between atoms: _553  and  ZN_801
REMARK  206  A    between atoms: _555  and  _557
REMARK  207  A    between atoms: _557  and  _558
REMARK  208  A    between atoms: _561  and  _563
REMARK  209  A    between atoms: _563  and  _564
REMARK  210  A    between atoms: _566  and  _568
REMARK  211  A    between atoms: _568  and  _569
REMARK  212  A    between atoms: _568  and  _571
REMARK  213  A    between atoms: _571  and  _572
REMARK  214  A    between atoms: _575  and  _577
REMARK  215  A    between atoms: _577  and  _578
REMARK  216  A    between atoms: _581  and  _583
REMARK  217  A    between atoms: _583  and  _584
REMARK  218  A    between atoms: _583  and  _586
REMARK  219  A    between atoms: _586  and  _587
REMARK  220  A    between atoms: _587  and  _588
REMARK  221  A    between atoms: _591  and  _593
REMARK  222  A    between atoms: _593  and  _594
REMARK  223  A    between atoms: _593  and  _596
REMARK  224  A    between atoms: _596  and  _597
REMARK  225  A    between atoms: _597  and  _598
REMARK  226  A    between atoms: _598  and  _599
REMARK  227  A    between atoms: _599  and  _600
REMARK  228  A    between atoms: _604  and  _606
REMARK  229  A    between atoms: _606  and  _607
REMARK  230  A    between atoms: _606  and  _609
REMARK  231  A    between atoms: _609  and  _610
REMARK  232  A    between atoms: _616  and  _618
REMARK  233  A    between atoms: _618  and  _619
REMARK  234  A    between atoms: _618  and  _621
REMARK  235  A    between atoms: _621  and  _622
REMARK  236  A    between atoms: _628  and  _630
REMARK  237  A    between atoms: _630  and  _631
REMARK  238  A    between atoms: _633  and  _635
REMARK  239  A    between atoms: _635  and  _636
REMARK  240  A    between atoms: _635  and  _638
REMARK  241  A    between atoms: _641  and  _643
REMARK  242  A    between atoms: _643  and  _644
REMARK  243  A    between atoms: _643  and  _646
REMARK  244  A    between atoms: _646  and  _647
REMARK  245  A    between atoms: _647  and  _648
REMARK  246  A    between atoms: _648  and  _649
REMARK  247  A    between atoms: _649  and  _650
REMARK  248  A    between atoms: _654  and  _656
REMARK  249  A    between atoms: _656  and  _657
REMARK  250  A    between atoms: _656  and  _659
REMARK  251  A    between atoms: _659  and  _660
REMARK  252  A    between atoms: _666  and  _668
REMARK  253  A    between atoms: _668  and  _669
REMARK  254  A    between atoms: _668  and  _671
REMARK  255  A    between atoms: _671  and  _672
REMARK  256  A    between atoms: _677  and  _679
REMARK  257  A    between atoms: _679  and  _680
REMARK  258  A    between atoms: _679  and  _682
REMARK  259  A    between atoms: _682  and  _683
REMARK  260  A    between atoms: _688  and  _690
REMARK  261  A    between atoms: _690  and  _691
REMARK  262  A    between atoms: _690  and  _693
REMARK  263  A    between atoms: _696  and  _698
REMARK  264  A    between atoms: _698  and  _699
REMARK  265  A    between atoms: _698  and  _701
REMARK  266  A    between atoms: _701  and  _702
REMARK  267  A    between atoms: _706  and  _707
REMARK  268  A    between atoms: _712  and  _714
REMARK  269  A    between atoms: _714  and  _715
REMARK  270  A    between atoms: _714  and  _717
REMARK  271  A    between atoms: _717  and  _718
REMARK  272  A    between atoms: _723  and  _724
REMARK  273  A    between atoms: _726  and  _728
REMARK  274  A    between atoms: _728  and  _729
REMARK  275  A    between atoms: _728  and  _731
REMARK  276  A    between atoms: _731  and  _732
REMARK  277  A    between atoms: _732  and  _733
REMARK  278  A    between atoms: _733  and  _734
REMARK  279  A    between atoms: _743  and  _745
REMARK  280  A    between atoms: _745  and  _746
REMARK  281  A    between atoms: _745  and  _748
REMARK  282  A    between atoms: _748  and  _749
REMARK  283  A    between atoms: _754  and  _755
REMARK  284  A    between atoms: _757  and  _759
REMARK  285  A    between atoms: _759  and  _760
REMARK  286  A    between atoms: _759  and  _762
REMARK  287  A    between atoms: _762  and  _763
REMARK  288  A    between atoms: _769  and  _771
REMARK  289  A    between atoms: _771  and  _772
REMARK  290  A    between atoms: _771  and  _774
REMARK  291  A    between atoms: _774  and  _775
REMARK  292  A    between atoms: _777  and  _779
REMARK  293  A    between atoms: _779  and  _780
REMARK  294  A    between atoms: _779  and  _782
REMARK  295  A    between atoms: _782  and  _783
REMARK  296  A    between atoms: _789  and  _791
REMARK  297  A    between atoms: _791  and  _792
REMARK  298  A    between atoms: _791  and  _794
REMARK  299  A    between atoms: _794  and  _795
REMARK  300  A    between atoms: _795  and  _796
REMARK                            x       y       z     vdW  Elec       q    Type
REMARK                         _______ _______ _______ _____ _____    ______ ____
ROOT
ATOM      1  CA  ASP A   1      12.077  -5.912 -23.247  0.00  0.00    +0.144 C 
ENDROOT
BRANCH   1   2
ATOM      2  N   ASP A   1      13.484  -5.547 -23.167  0.00  0.00    -0.239 NA
ATOM      3  H   ASP A   1      13.769  -4.866 -22.434  0.00  0.00    +0.142 HD
ENDBRANCH   1   2
BRANCH   1   4
ATOM      4  C   ASP A   1      11.242  -4.649 -22.919  0.00  0.00    +0.225 C 
ATOM      5  O   ASP A   1      11.648  -3.813 -22.086  0.00  0.00    -0.287 OA
ENDBRANCH   1   4
BRANCH   1   6
ATOM      6  CB  ASP A   1      11.846  -7.076 -22.266  0.00  0.00    +0.139 C 
BRANCH   6   7
ATOM      7  CG  ASP A   1      10.400  -7.349 -21.980  0.00  0.00    +0.367 C 
ATOM      8  OD2 ASP A   1       9.849  -6.707 -21.069  0.00  0.00    -0.246 OA
ATOM      9  OD1 ASP A   1       9.822  -8.235 -22.642  0.00  0.00    -0.246 OA
ENDBRANCH   6   7
ENDBRANCH   1   6
TORSDOF 4
REMARK  Name = ../refined-set-2016/2xyd/2xyd_pocket.pdb
REMARK  300 active torsions:
REMARK  status: ('A' for Active; 'I' for Inactive)
REMARK    1  A    between atoms: _1  and  _3
REMARK    2  A    between atoms: _3  and  _4
REMARK    3  A    between atoms: _3  and  _6
REMARK    4  A    between atoms: _6  and  _7
REMARK    5  A    between atoms: _10  and  _12
REMARK    6  A    between atoms: _12  and  _13
REMARK    7  A    between atoms: _12  and  _15
REMARK    8  A    between atoms: _15  and  _16
REMARK    9  A    between atoms: _21  and  _22
REMARK   10  A    between atoms: _24  and  _26
REMARK   11  A    between atoms: _26  and  _27
REMARK   12  A    between atoms: _26  and  _29
REMARK   13  A    between atoms: _29  and  _30
REMARK   14  A    between atoms: _35  and  _36
REMARK   15  A    between atoms: _38  and  _40
REMARK   16  A    between atoms: _40  and  _41
REMARK   17  A    between atoms: _40  and  _43
REMARK   18  A    between atoms: _43  and  _44
REMARK   19  A    between atoms: _47  and  _49
REMARK   20  A    between atoms: _49  and  _50
REMARK   21  A    between atoms: _49  and  _52
REMARK   22  A    between atoms: _52  and  _53
REMARK   23  A    between atoms: _63  and  _65
REMARK   24  A    between atoms: _65  and  _66
REMARK   25  A    between atoms: _65  and  _68
REMARK   26  A    between atoms: _68  and  _69
REMARK   27  A    between atoms: _69  and  _70
REMARK   28  A    between atoms: _75  and  _77
REMARK   29  A    between atoms: _77  and  _78
REMARK   30  A    between atoms: _77  and  _80
REMARK   31  A    between atoms: _80  and  _81
REMARK   32  A    between atoms: _83  and  _85
REMARK   33  A    between atoms: _85  and  _86
REMARK   34  A    between atoms: _85  and  _88
REMARK   35  A    between atoms: _88  and  _89
REMARK   36  A    between atoms: _99  and  _101
REMARK   37  A    between atoms: _101  and  _102
REMARK   38  A    between atoms: _101  and  _104
REMARK   39  A    between atoms: _104  and  _105
REMARK   40  A    between atoms: _105  and  _106
REMARK   41  A    between atoms: _109  and  _111
REMARK   42  A    between atoms: _111  and  _112
REMARK   43  A    between atoms: _111  and  _114
REMARK   44  A    between atoms: _114  and  _115
REMARK   45  A    between atoms: _120  and  _122
REMARK   46  A    between atoms: _122  and  _123
REMARK   47  A    between atoms: _122  and  _125
REMARK   48  A    between atoms: _128  and  _130
REMARK   49  A    between atoms: _130  and  _131
REMARK   50  A    between atoms: _130  and  _133
REMARK   51  A    between atoms: _135  and  _137
REMARK   52  A    between atoms: _137  and  _138
REMARK   53  A    between atoms: _137  and  _140
REMARK   54  A    between atoms: _140  and  _141
REMARK   55  A    between atoms: _146  and  _148
REMARK   56  A    between atoms: _148  and  _149
REMARK   57  A    between atoms: _152  and  _154
REMARK   58  A    between atoms: _154  and  _155
REMARK   59  A    between atoms: _154  and  _157
REMARK   60  A    between atoms: _157  and  _158
REMARK   61  A    between atoms: _160  and  _162
REMARK   62  A    between atoms: _162  and  _163
REMARK   63  A    between atoms: _166  and  _168
REMARK   64  A    between atoms: _168  and  _169
REMARK   65  A    between atoms: _168  and  _171
REMARK   66  A    between atoms: _171  and  _172
REMARK   67  A    between atoms: _182  and  _184
REMARK   68  A    between atoms: _184  and  _185
REMARK   69  A    between atoms: _184  and  _187
REMARK   70  A    between atoms: _187  and  _188
REMARK   71  A    between atoms: _191  and  _193
REMARK   72  A    between atoms: _193  and  _194
REMARK   73  A    between atoms: _193  and  _196
REMARK   74  A    between atoms: _196  and  _197
REMARK   75  A    between atoms: _202  and  _203
REMARK   76  A    between atoms: _205  and  _207
REMARK   77  A    between atoms: _207  and  _208
REMARK   78  A    between atoms: _207  and  _210
REMARK   79  A    between atoms: _210  and  _211
REMARK   80  A    between atoms: _211  and  _212
REMARK   81  A    between atoms: _212  and  _213
REMARK   82  A    between atoms: _222  and  _224
REMARK   83  A    between atoms: _224  and  _225
REMARK   84  A    between atoms: _224  and  _227
REMARK   85  A    between atoms: _227  and  _228
REMARK   86  A    between atoms: _231  and  _233
REMARK   87  A    between atoms: _233  and  _234
REMARK   88  A    between atoms: _233  and  _236
REMARK   89  A    between atoms: _236  and  _237
REMARK   90  A    between atoms: _237  and  _238
REMARK   91  A    between atoms: _238  and  _239
REMARK   92  A    between atoms: _239  and  _240
REMARK   93  A    between atoms: _244  and  _246
REMARK   94  A    between atoms: _246  and  _247
REMARK   95  A    between atoms: _246  and  _249
REMARK   96  A    between atoms: _249  and  _250
REMARK   97  A    between atoms: _250  and  _251
REMARK   98  A    between atoms: _256  and  _258
REMARK   99  A    between atoms: _258  and  _259
REMARK  100  A    between atoms: _258  and  _261
REMARK  101  A    between atoms: _261  and  _262
REMARK  102  A    between atoms: _262  and  _263
REMARK  103  A    between atoms: _263  and  _264
REMARK  104  A    between atoms: _273  and  _275
REMARK  105  A    between atoms: _275  and  _276
REMARK  106  A    between atoms: _275  and  _278
REMARK  107  A    between atoms: _278  and  _279
REMARK  108  A    between atoms: _282  and  _284
REMARK  109  A    between atoms: _284  and  _285
REMARK  110  A    between atoms: _284  and  _287
REMARK  111  A    between atoms: _287  and  _288
REMARK  112  A    between atoms: _288  and  _289
REMARK  113  A    between atoms: _291  and  _293
REMARK  114  A    between atoms: _293  and  _294
REMARK  115  A    between atoms: _293  and  _296
REMARK  116  A    between atoms: _296  and  _297
REMARK  117  A    between atoms: _300  and  _302
REMARK  118  A    between atoms: _302  and  _303
REMARK  119  A    between atoms: _302  and  _305
REMARK  120  A    between atoms: _305  and  _306
REMARK  121  A    between atoms: _306  and  _307
REMARK  122  A    between atoms: _312  and  _314
REMARK  123  A    between atoms: _314  and  _315
REMARK  124  A    between atoms: _314  and  _317
REMARK  125  A    between atoms: _317  and  _318
REMARK  126  A    between atoms: _321  and  _323
REMARK  127  A    between atoms: _323  and  _324
REMARK  128  A    between atoms: _323  and  _326
REMARK  129  A    between atoms: _326  and  _327
REMARK  130  A    between atoms: _329  and  _331
REMARK  131  A    between atoms: _331  and  _332
REMARK  132  A    between atoms: _331  and  _334
REMARK  133  A    between atoms: _334  and  _335
REMARK  134  A    between atoms: _338  and  _340
REMARK  135  A    between atoms: _340  and  _341
REMARK  136  A    between atoms: _340  and  _343
REMARK  137  A    between atoms: _346  and  _348
REMARK  138  A    between atoms: _348  and  _349
REMARK  139  A    between atoms: _348  and  _351
REMARK  140  A    between atoms: _351  and  _352
REMARK  141  A    between atoms: _357  and  _359
REMARK  142  A    between atoms: _370  and  _373
REMARK  143  A    between atoms: _373  and  _374
REMARK  144  A    between atoms: _374  and  _375
REMARK  145  A    between atoms: _380  and  _383
REMARK  146  A    between atoms: _383  and  _384
REMARK  147  A    between atoms: _384  and  _385
REMARK  148  A    between atoms: _394  and  _395
REMARK  149  A    between atoms: _403  and  _405
REMARK  150  A    between atoms: _405  and  _406
REMARK  151  A    between atoms: _405  and  _408
REMARK  152  A    between atoms: _408  and  _409
REMARK  153  A    between atoms: _412  and  _414
REMARK  154  A    between atoms: _414  and  _415
REMARK  155  A    between atoms: _414  and  _417
REMARK  156  A    between atoms: _417  and  _418
REMARK  157  A    between atoms: _423  and  _424
REMARK  158  A    between atoms: _426  and  _428
REMARK  159  A    between atoms: _428  and  _429
REMARK  160  A    between atoms: _428  and  _431
REMARK  161  A    between atoms: _431  and  _432
REMARK  162  A    between atoms: _437  and  _438
REMARK  163  A    between atoms: _440  and  _442
REMARK  164  A    between atoms: _442  and  _443
REMARK  165  A    between atoms: _442  and  _445
REMARK  166  A    between atoms: _445  and  _446
REMARK  167  A    between atoms: _451  and  _452
REMARK  168  A    between atoms: _454  and  _456
REMARK  169  A    between atoms: _456  and  _457
REMARK  170  A    between atoms: _456  and  _459
REMARK  171  A    between atoms: _459  and  _460
REMARK  172  A    between atoms: _460  and  _461
REMARK  173  A    between atoms: _461  and  _462
REMARK  174  A    between atoms: _471  and  _473
REMARK  175  A    between atoms: _473  and  _474
REMARK  176  A    between atoms: _473  and  _476
REMARK  177  A    between atoms: _476  and  _477
REMARK  178  A    between atoms: _477  and  _478
REMARK  179  A    between atoms: _478  and  _479
REMARK  180  A    between atoms: _488  and  _490
REMARK  181  A    between atoms: _490  and  _491
REMARK  182  A    between atoms: _493  and  _495
REMARK  183  A    between atoms: _495  and  _496
REMARK  184  A    between atoms: _499  and  _501
REMARK  185  A    between atoms: _501  and  _502
REMARK  186  A    between atoms: _501  and  _504
REMARK  187  A    between atoms: _504  and  _505
REMARK  188  A    between atoms: _511  and  _512
REMARK  189  A    between atoms: _517  and  _519
REMARK  190  A    between atoms: _519  and  _520
REMARK  191  A    between atoms: _522  and  _524
REMARK  192  A    between atoms: _524  and  _525
REMARK  193  A    between atoms: _524  and  _527
REMARK  194  A    between atoms: _527  and  _528
REMARK  195  A    between atoms: _534  and  _536
REMARK  196  A    between atoms: _536  and  _537
REMARK  197  A    between atoms: _536  and  _539
REMARK  198  A    between atoms: _539  and  _540
REMARK  199  A    between atoms: _545  and  _547
REMARK  200  A    between atoms: _547  and  _548
REMARK  201  A    between atoms: _547  and  _550
REMARK  202  A    between atoms: _550  and  _551
REMARK  203  A    between atoms: _551  and  _552
REMARK  204  A    between atoms: _552  and  _553
REMARK  205  A    between atoms: _553  and  ZN_801
REMARK  206  A    between atoms: _555  and  _557
REMARK  207  A    between atoms: _557  and  _558
REMARK  208  A    between atoms: _561  and  _563
REMARK  209  A    between atoms: _563  and  _564
REMARK  210  A    between atoms: _566  and  _568
REMARK  211  A    between atoms: _568  and  _569
REMARK  212  A    between atoms: _568  and  _571
REMARK  213  A    between atoms: _571  and  _572
REMARK  214  A    between atoms: _575  and  _577
REMARK  215  A    between atoms: _577  and  _578
REMARK  216  A    between atoms: _581  and  _583
REMARK  217  A    between atoms: _583  and  _584
REMARK  218  A    between atoms: _583  and  _586
REMARK  219  A    between atoms: _586  and  _587
REMARK  220  A    between atoms: _587  and  _588
REMARK  221  A    between atoms: _591  and  _593
REMARK  222  A    between atoms: _593  and  _594
REMARK  223  A    between atoms: _593  and  _596
REMARK  224  A    between atoms: _596  and  _597
REMARK  225  A    between atoms: _597  and  _598
REMARK  226  A    between atoms: _598  and  _599
REMARK  227  A    between atoms: _599  and  _600
REMARK  228  A    between atoms: _604  and  _606
REMARK  229  A    between atoms: _606  and  _607
REMARK  230  A    between atoms: _606  and  _609
REMARK  231  A    between atoms: _609  and  _610
REMARK  232  A    between atoms: _616  and  _618
REMARK  233  A    between atoms: _618  and  _619
REMARK  234  A    between atoms: _618  and  _621
REMARK  235  A    between atoms: _621  and  _622
REMARK  236  A    between atoms: _628  and  _630
REMARK  237  A    between atoms: _630  and  _631
REMARK  238  A    between atoms: _633  and  _635
REMARK  239  A    between atoms: _635  and  _636
REMARK  240  A    between atoms: _635  and  _638
REMARK  241  A    between atoms: _641  and  _643
REMARK  242  A    between atoms: _643  and  _644
REMARK  243  A    between atoms: _643  and  _646
REMARK  244  A    between atoms: _646  and  _647
REMARK  245  A    between atoms: _647  and  _648
REMARK  246  A    between atoms: _648  and  _649
REMARK  247  A    between atoms: _649  and  _650
REMARK  248  A    between atoms: _654  and  _656
REMARK  249  A    between atoms: _656  and  _657
REMARK  250  A    between atoms: _656  and  _659
REMARK  251  A    between atoms: _659  and  _660
REMARK  252  A    between atoms: _666  and  _668
REMARK  253  A    between atoms: _668  and  _669
REMARK  254  A    between atoms: _668  and  _671
REMARK  255  A    between atoms: _671  and  _672
REMARK  256  A    between atoms: _677  and  _679
REMARK  257  A    between atoms: _679  and  _680
REMARK  258  A    between atoms: _679  and  _682
REMARK  259  A    between atoms: _682  and  _683
REMARK  260  A    between atoms: _688  and  _690
REMARK  261  A    between atoms: _690  and  _691
REMARK  262  A    between atoms: _690  and  _693
REMARK  263  A    between atoms: _696  and  _698
REMARK  264  A    between atoms: _698  and  _699
REMARK  265  A    between atoms: _698  and  _701
REMARK  266  A    between atoms: _701  and  _702
REMARK  267  A    between atoms: _706  and  _707
REMARK  268  A    between atoms: _712  and  _714
REMARK  269  A    between atoms: _714  and  _715
REMARK  270  A    between atoms: _714  and  _717
REMARK  271  A    between atoms: _717  and  _718
REMARK  272  A    between atoms: _723  and  _724
REMARK  273  A    between atoms: _726  and  _728
REMARK  274  A    between atoms: _728  and  _729
REMARK  275  A    between atoms: _728  and  _731
REMARK  276  A    between atoms: _731  and  _732
REMARK  277  A    between atoms: _732  and  _733
REMARK  278  A    between atoms: _733  and  _734
REMARK  279  A    between atoms: _743  and  _745
REMARK  280  A    between atoms: _745  and  _746
REMARK  281  A    between atoms: _745  and  _748
REMARK  282  A    between atoms: _748  and  _749
REMARK  283  A    between atoms: _754  and  _755
REMARK  284  A    between atoms: _757  and  _759
REMARK  285  A    between atoms: _759  and  _760
REMARK  286  A    between atoms: _759  and  _762
REMARK  287  A    between atoms: _762  and  _763
REMARK  288  A    between atoms: _769  and  _771
REMARK  289  A    between atoms: _771  and  _772
REMARK  290  A    between atoms: _771  and  _774
REMARK  291  A    between atoms: _774  and  _775
REMARK  292  A    between atoms: _777  and  _779
REMARK  293  A    between atoms: _779  and  _780
REMARK  294  A    between atoms: _779  and  _782
REMARK  295  A    between atoms: _782  and  _783
REMARK  296  A    between atoms: _789  and  _791
REMARK  297  A    between atoms: _791  and  _792
REMARK  298  A    between atoms: _791  and  _794
REMARK  299  A    between atoms: _794  and  _795
REMARK  300  A    between atoms: _795  and  _796
REMARK                            x       y       z     vdW  Elec       q    Type
REMARK                         _______ _______ _______ _____ _____    ______ ____
ROOT
ATOM      1  CG  TRP A   1       5.931  -4.731 -20.752  0.00  0.00    -0.002 A 
ATOM      2  CD1 TRP A   1       4.954  -3.759 -20.710  0.00  0.00    +0.068 A 
ATOM      3  NE1 TRP A   1       4.233  -3.765 -21.881  0.00  0.00    -0.352 N 
ATOM      4  HE1 TRP A   1       3.429  -3.143 -22.101  0.00  0.00    +0.166 HD
ATOM      5  CE2 TRP A   1       4.750  -4.727 -22.712  0.00  0.00    +0.056 A 
ATOM      6  CZ2 TRP A   1       4.364  -5.105 -23.997  0.00  0.00    +0.017 A 
ATOM      7  CH2 TRP A   1       5.069  -6.122 -24.598  0.00  0.00    +0.001 A 
ATOM      8  CZ3 TRP A   1       6.146  -6.766 -23.948  0.00  0.00    +0.000 A 
ATOM      9  CE3 TRP A   1       6.533  -6.386 -22.666  0.00  0.00    +0.001 A 
ATOM     10  CD2 TRP A   1       5.831  -5.349 -22.030  0.00  0.00    +0.013 A 
ENDROOT
BRANCH   1  11
ATOM     11  CB  TRP A   1       6.946  -5.027 -19.705  0.00  0.00    +0.053 C 
BRANCH  11  12
ATOM     12  CA  TRP A   1       8.161  -4.108 -19.856  0.00  0.00    +0.137 C 
BRANCH  12  13
ATOM     13  N   TRP A   1       8.686  -4.179 -21.219  0.00  0.00    -0.239 NA
ATOM     14  H   TRP A   1       8.981  -5.098 -21.605  0.00  0.00    +0.142 HD
ENDBRANCH  12  13
BRANCH  12  15
ATOM     15  C   TRP A   1       9.220  -4.412 -18.803  0.00  0.00    +0.224 C 
ATOM     16  O   TRP A   1       8.888  -4.601 -17.621  0.00  0.00    -0.287 OA
ENDBRANCH  12  15
ENDBRANCH  11  12
ENDBRANCH   1  11
TORSDOF 4
REMARK  Name = ../refined-set-2016/2xyd/2xyd_pocket.pdb
REMARK  300 active torsions:
REMARK  status: ('A' for Active; 'I' for Inactive)
REMARK    1  A    between atoms: _1  and  _3
REMARK    2  A    between atoms: _3  and  _4
REMARK    3  A    between atoms: _3  and  _6
REMARK    4  A    between atoms: _6  and  _7
REMARK    5  A    between atoms: _10  and  _12
REMARK    6  A    between atoms: _12  and  _13
REMARK    7  A    between atoms: _12  and  _15
REMARK    8  A    between atoms: _15  and  _16
REMARK    9  A    between atoms: _21  and  _22
REMARK   10  A    between atoms: _24  and  _26
REMARK   11  A    between atoms: _26  and  _27
REMARK   12  A    between atoms: _26  and  _29
REMARK   13  A    between atoms: _29  and  _30
REMARK   14  A    between atoms: _35  and  _36
REMARK   15  A    between atoms: _38  and  _40
REMARK   16  A    between atoms: _40  and  _41
REMARK   17  A    between atoms: _40  and  _43
REMARK   18  A    between atoms: _43  and  _44
REMARK   19  A    between atoms: _47  and  _49
REMARK   20  A    between atoms: _49  and  _50
REMARK   21  A    between atoms: _49  and  _52
REMARK   22  A    between atoms: _52  and  _53
REMARK   23  A    between atoms: _63  and  _65
REMARK   24  A    between atoms: _65  and  _66
REMARK   25  A    between atoms: _65  and  _68
REMARK   26  A    between atoms: _68  and  _69
REMARK   27  A    between atoms: _69  and  _70
REMARK   28  A    between atoms: _75  and  _77
REMARK   29  A    between atoms: _77  and  _78
REMARK   30  A    between atoms: _77  and  _80
REMARK   31  A    between atoms: _80  and  _81
REMARK   32  A    between atoms: _83  and  _85
REMARK   33  A    between atoms: _85  and  _86
REMARK   34  A    between atoms: _85  and  _88
REMARK   35  A    between atoms: _88  and  _89
REMARK   36  A    between atoms: _99  and  _101
REMARK   37  A    between atoms: _101  and  _102
REMARK   38  A    between atoms: _101  and  _104
REMARK   39  A    between atoms: _104  and  _105
REMARK   40  A    between atoms: _105  and  _106
REMARK   41  A    between atoms: _109  and  _111
REMARK   42  A    between atoms: _111  and  _112
REMARK   43  A    between atoms: _111  and  _114
REMARK   44  A    between atoms: _114  and  _115
REMARK   45  A    between atoms: _120  and  _122
REMARK   46  A    between atoms: _122  and  _123
REMARK   47  A    between atoms: _122  and  _125
REMARK   48  A    between atoms: _128  and  _130
REMARK   49  A    between atoms: _130  and  _131
REMARK   50  A    between atoms: _130  and  _133
REMARK   51  A    between atoms: _135  and  _137
REMARK   52  A    between atoms: _137  and  _138
REMARK   53  A    between atoms: _137  and  _140
REMARK   54  A    between atoms: _140  and  _141
REMARK   55  A    between atoms: _146  and  _148
REMARK   56  A    between atoms: _148  and  _149
REMARK   57  A    between atoms: _152  and  _154
REMARK   58  A    between atoms: _154  and  _155
REMARK   59  A    between atoms: _154  and  _157
REMARK   60  A    between atoms: _157  and  _158
REMARK   61  A    between atoms: _160  and  _162
REMARK   62  A    between atoms: _162  and  _163
REMARK   63  A    between atoms: _166  and  _168
REMARK   64  A    between atoms: _168  and  _169
REMARK   65  A    between atoms: _168  and  _171
REMARK   66  A    between atoms: _171  and  _172
REMARK   67  A    between atoms: _182  and  _184
REMARK   68  A    between atoms: _184  and  _185
REMARK   69  A    between atoms: _184  and  _187
REMARK   70  A    between atoms: _187  and  _188
REMARK   71  A    between atoms: _191  and  _193
REMARK   72  A    between atoms: _193  and  _194
REMARK   73  A    between atoms: _193  and  _196
REMARK   74  A    between atoms: _196  and  _197
REMARK   75  A    between atoms: _202  and  _203
REMARK   76  A    between atoms: _205  and  _207
REMARK   77  A    between atoms: _207  and  _208
REMARK   78  A    between atoms: _207  and  _210
REMARK   79  A    between atoms: _210  and  _211
REMARK   80  A    between atoms: _211  and  _212
REMARK   81  A    between atoms: _212  and  _213
REMARK   82  A    between atoms: _222  and  _224
REMARK   83  A    between atoms: _224  and  _225
REMARK   84  A    between atoms: _224  and  _227
REMARK   85  A    between atoms: _227  and  _228
REMARK   86  A    between atoms: _231  and  _233
REMARK   87  A    between atoms: _233  and  _234
REMARK   88  A    between atoms: _233  and  _236
REMARK   89  A    between atoms: _236  and  _237
REMARK   90  A    between atoms: _237  and  _238
REMARK   91  A    between atoms: _238  and  _239
REMARK   92  A    between atoms: _239  and  _240
REMARK   93  A    between atoms: _244  and  _246
REMARK   94  A    between atoms: _246  and  _247
REMARK   95  A    between atoms: _246  and  _249
REMARK   96  A    between atoms: _249  and  _250
REMARK   97  A    between atoms: _250  and  _251
REMARK   98  A    between atoms: _256  and  _258
REMARK   99  A    between atoms: _258  and  _259
REMARK  100  A    between atoms: _258  and  _261
REMARK  101  A    between atoms: _261  and  _262
REMARK  102  A    between atoms: _262  and  _263
REMARK  103  A    between atoms: _263  and  _264
REMARK  104  A    between atoms: _273  and  _275
REMARK  105  A    between atoms: _275  and  _276
REMARK  106  A    between atoms: _275  and  _278
REMARK  107  A    between atoms: _278  and  _279
REMARK  108  A    between atoms: _282  and  _284
REMARK  109  A    between atoms: _284  and  _285
REMARK  110  A    between atoms: _284  and  _287
REMARK  111  A    between atoms: _287  and  _288
REMARK  112  A    between atoms: _288  and  _289
REMARK  113  A    between atoms: _291  and  _293
REMARK  114  A    between atoms: _293  and  _294
REMARK  115  A    between atoms: _293  and  _296
REMARK  116  A    between atoms: _296  and  _297
REMARK  117  A    between atoms: _300  and  _302
REMARK  118  A    between atoms: _302  and  _303
REMARK  119  A    between atoms: _302  and  _305
REMARK  120  A    between atoms: _305  and  _306
REMARK  121  A    between atoms: _306  and  _307
REMARK  122  A    between atoms: _312  and  _314
REMARK  123  A    between atoms: _314  and  _315
REMARK  124  A    between atoms: _314  and  _317
REMARK  125  A    between atoms: _317  and  _318
REMARK  126  A    between atoms: _321  and  _323
REMARK  127  A    between atoms: _323  and  _324
REMARK  128  A    between atoms: _323  and  _326
REMARK  129  A    between atoms: _326  and  _327
REMARK  130  A    between atoms: _329  and  _331
REMARK  131  A    between atoms: _331  and  _332
REMARK  132  A    between atoms: _331  and  _334
REMARK  133  A    between atoms: _334  and  _335
REMARK  134  A    between atoms: _338  and  _340
REMARK  135  A    between atoms: _340  and  _341
REMARK  136  A    between atoms: _340  and  _343
REMARK  137  A    between atoms: _346  and  _348
REMARK  138  A    between atoms: _348  and  _349
REMARK  139  A    between atoms: _348  and  _351
REMARK  140  A    between atoms: _351  and  _352
REMARK  141  A    between atoms: _357  and  _359
REMARK  142  A    between atoms: _370  and  _373
REMARK  143  A    between atoms: _373  and  _374
REMARK  144  A    between atoms: _374  and  _375
REMARK  145  A    between atoms: _380  and  _383
REMARK  146  A    between atoms: _383  and  _384
REMARK  147  A    between atoms: _384  and  _385
REMARK  148  A    between atoms: _394  and  _395
REMARK  149  A    between atoms: _403  and  _405
REMARK  150  A    between atoms: _405  and  _406
REMARK  151  A    between atoms: _405  and  _408
REMARK  152  A    between atoms: _408  and  _409
REMARK  153  A    between atoms: _412  and  _414
REMARK  154  A    between atoms: _414  and  _415
REMARK  155  A    between atoms: _414  and  _417
REMARK  156  A    between atoms: _417  and  _418
REMARK  157  A    between atoms: _423  and  _424
REMARK  158  A    between atoms: _426  and  _428
REMARK  159  A    between atoms: _428  and  _429
REMARK  160  A    between atoms: _428  and  _431
REMARK  161  A    between atoms: _431  and  _432
REMARK  162  A    between atoms: _437  and  _438
REMARK  163  A    between atoms: _440  and  _442
REMARK  164  A    between atoms: _442  and  _443
REMARK  165  A    between atoms: _442  and  _445
REMARK  166  A    between atoms: _445  and  _446
REMARK  167  A    between atoms: _451  and  _452
REMARK  168  A    between atoms: _454  and  _456
REMARK  169  A    between atoms: _456  and  _457
REMARK  170  A    between atoms: _456  and  _459
REMARK  171  A    between atoms: _459  and  _460
REMARK  172  A    between atoms: _460  and  _461
REMARK  173  A    between atoms: _461  and  _462
REMARK  174  A    between atoms: _471  and  _473
REMARK  175  A    between atoms: _473  and  _474
REMARK  176  A    between atoms: _473  and  _476
REMARK  177  A    between atoms: _476  and  _477
REMARK  178  A    between atoms: _477  and  _478
REMARK  179  A    between atoms: _478  and  _479
REMARK  180  A    between atoms: _488  and  _490
REMARK  181  A    between atoms: _490  and  _491
REMARK  182  A    between atoms: _493  and  _495
REMARK  183  A    between atoms: _495  and  _496
REMARK  184  A    between atoms: _499  and  _501
REMARK  185  A    between atoms: _501  and  _502
REMARK  186  A    between atoms: _501  and  _504
REMARK  187  A    between atoms: _504  and  _505
REMARK  188  A    between atoms: _511  and  _512
REMARK  189  A    between atoms: _517  and  _519
REMARK  190  A    between atoms: _519  and  _520
REMARK  191  A    between atoms: _522  and  _524
REMARK  192  A    between atoms: _524  and  _525
REMARK  193  A    between atoms: _524  and  _527
REMARK  194  A    between atoms: _527  and  _528
REMARK  195  A    between atoms: _534  and  _536
REMARK  196  A    between atoms: _536  and  _537
REMARK  197  A    between atoms: _536  and  _539
REMARK  198  A    between atoms: _539  and  _540
REMARK  199  A    between atoms: _545  and  _547
REMARK  200  A    between atoms: _547  and  _548
REMARK  201  A    between atoms: _547  and  _550
REMARK  202  A    between atoms: _550  and  _551
REMARK  203  A    between atoms: _551  and  _552
REMARK  204  A    between atoms: _552  and  _553
REMARK  205  A    between atoms: _553  and  ZN_801
REMARK  206  A    between atoms: _555  and  _557
REMARK  207  A    between atoms: _557  and  _558
REMARK  208  A    between atoms: _561  and  _563
REMARK  209  A    between atoms: _563  and  _564
REMARK  210  A    between atoms: _566  and  _568
REMARK  211  A    between atoms: _568  and  _569
REMARK  212  A    between atoms: _568  and  _571
REMARK  213  A    between atoms: _571  and  _572
REMARK  214  A    between atoms: _575  and  _577
REMARK  215  A    between atoms: _577  and  _578
REMARK  216  A    between atoms: _581  and  _583
REMARK  217  A    between atoms: _583  and  _584
REMARK  218  A    between atoms: _583  and  _586
REMARK  219  A    between atoms: _586  and  _587
REMARK  220  A    between atoms: _587  and  _588
REMARK  221  A    between atoms: _591  and  _593
REMARK  222  A    between atoms: _593  and  _594
REMARK  223  A    between atoms: _593  and  _596
REMARK  224  A    between atoms: _596  and  _597
REMARK  225  A    between atoms: _597  and  _598
REMARK  226  A    between atoms: _598  and  _599
REMARK  227  A    between atoms: _599  and  _600
REMARK  228  A    between atoms: _604  and  _606
REMARK  229  A    between atoms: _606  and  _607
REMARK  230  A    between atoms: _606  and  _609
REMARK  231  A    between atoms: _609  and  _610
REMARK  232  A    between atoms: _616  and  _618
REMARK  233  A    between atoms: _618  and  _619
REMARK  234  A    between atoms: _618  and  _621
REMARK  235  A    between atoms: _621  and  _622
REMARK  236  A    between atoms: _628  and  _630
REMARK  237  A    between atoms: _630  and  _631
REMARK  238  A    between atoms: _633  and  _635
REMARK  239  A    between atoms: _635  and  _636
REMARK  240  A    between atoms: _635  and  _638
REMARK  241  A    between atoms: _641  and  _643
REMARK  242  A    between atoms: _643  and  _644
REMARK  243  A    between atoms: _643  and  _646
REMARK  244  A    between atoms: _646  and  _647
REMARK  245  A    between atoms: _647  and  _648
REMARK  246  A    between atoms: _648  and  _649
REMARK  247  A    between atoms: _649  and  _650
REMARK  248  A    between atoms: _654  and  _656
REMARK  249  A    between atoms: _656  and  _657
REMARK  250  A    between atoms: _656  and  _659
REMARK  251  A    between atoms: _659  and  _660
REMARK  252  A    between atoms: _666  and  _668
REMARK  253  A    between atoms: _668  and  _669
REMARK  254  A    between atoms: _668  and  _671
REMARK  255  A    between atoms: _671  and  _672
REMARK  256  A    between atoms: _677  and  _679
REMARK  257  A    between atoms: _679  and  _680
REMARK  258  A    between atoms: _679  and  _682
REMARK  259  A    between atoms: _682  and  _683
REMARK  260  A    between atoms: _688  and  _690
REMARK  261  A    between atoms: _690  and  _691
REMARK  262  A    between atoms: _690  and  _693
REMARK  263  A    between atoms: _696  and  _698
REMARK  264  A    between atoms: _698  and  _699
REMARK  265  A    between atoms: _698  and  _701
REMARK  266  A    between atoms: _701  and  _702
REMARK  267  A    between atoms: _706  and  _707
REMARK  268  A    between atoms: _712  and  _714
REMARK  269  A    between atoms: _714  and  _715
REMARK  270  A    between atoms: _714  and  _717
REMARK  271  A    between atoms: _717  and  _718
REMARK  272  A    between atoms: _723  and  _724
REMARK  273  A    between atoms: _726  and  _728
REMARK  274  A    between atoms: _728  and  _729
REMARK  275  A    between atoms: _728  and  _731
REMARK  276  A    between atoms: _731  and  _732
REMARK  277  A    between atoms: _732  and  _733
REMARK  278  A    between atoms: _733  and  _734
REMARK  279  A    between atoms: _743  and  _745
REMARK  280  A    between atoms: _745  and  _746
REMARK  281  A    between atoms: _745  and  _748
REMARK  282  A    between atoms: _748  and  _749
REMARK  283  A    between atoms: _754  and  _755
REMARK  284  A    between atoms: _757  and  _759
REMARK  285  A    between atoms: _759  and  _760
REMARK  286  A    between atoms: _759  and  _762
REMARK  287  A    between atoms: _762  and  _763
REMARK  288  A    between atoms: _769  and  _771
REMARK  289  A    between atoms: _771  and  _772
REMARK  290  A    between atoms: _771  and  _774
REMARK  291  A    between atoms: _774  and  _775
REMARK  292  A    between atoms: _777  and  _779
REMARK  293  A    between atoms: _779  and  _780
REMARK  294  A    between atoms: _779  and  _782
REMARK  295  A    between atoms: _782  and  _783
REMARK  296  A    between atoms: _789  and  _791
REMARK  297  A    between atoms: _791  and  _792
REMARK  298  A    between atoms: _791  and  _794
REMARK  299  A    between atoms: _794  and  _795
REMARK  300  A    between atoms: _795  and  _796
REMARK                            x       y       z     vdW  Elec       q    Type
REMARK                         _______ _______ _______ _____ _____    ______ ____
ROOT
ATOM      1  CA  TRP A   3      16.255  -9.538 -19.426  0.00  0.00    +0.153 C 
ENDROOT
BRANCH   1   3
ATOM      2  C   SER A   2      13.858  -9.756 -19.648  0.00  0.00    +0.243 C 
ATOM      3  N   TRP A   3      14.998 -10.206 -19.136  0.00  0.00    -0.297 N 
ATOM      4  H   TRP A   3      14.991 -11.045 -18.521  0.00  0.00    +0.150 HD
ATOM      5  O   SER A   2      13.803  -8.859 -20.485  0.00  0.00    -0.273 OA
BRANCH   2   6
ATOM      6  CA  SER A   2      12.587 -10.393 -19.131  0.00  0.00    +0.178 C 
BRANCH   6   9
ATOM      7  C   GLN A   1      10.919  -9.353 -17.701  0.00  0.00    +0.238 C 
ATOM      8  O   GLN A   1      10.940 -10.280 -16.891  0.00  0.00    -0.274 OA
ATOM      9  N   SER A   2      11.681  -9.314 -18.787  0.00  0.00    -0.295 N 
ATOM     10  H   SER A   2      11.627  -8.484 -19.411  0.00  0.00    +0.150 HD
BRANCH   7  11
ATOM     11  CA  GLN A   1       9.991  -8.163 -17.493  0.00  0.00    +0.145 C 
BRANCH  11  12
ATOM     12  N   GLN A   1      10.472  -6.974 -18.187  0.00  0.00    -0.238 NA
ATOM     13  H   GLN A   1      10.121  -6.773 -19.145  0.00  0.00    +0.142 HD
ENDBRANCH  11  12
BRANCH  11  14
ATOM     14  CB  GLN A   1       8.563  -8.516 -17.937  0.00  0.00    +0.036 C 
BRANCH  14  15
ATOM     15  CG  GLN A   1       8.461  -9.080 -19.354  0.00  0.00    +0.087 C 
BRANCH  15  16
ATOM     16  CD  GLN A   1       7.026  -9.352 -19.784  0.00  0.00    +0.219 C 
ATOM     17  OE1 GLN A   1       6.188  -8.456 -19.807  0.00  0.00    -0.275 OA
ATOM     18  NE2 GLN A   1       6.747 -10.592 -20.128  0.00  0.00    -0.329 N 
ATOM     19 HE21 GLN A   1       7.488 -11.321 -20.094  0.00  0.00    +0.145 HD
ATOM     20 HE22 GLN A   1       5.785 -10.843 -20.434  0.00  0.00    +0.145 HD
ENDBRANCH  15  16
ENDBRANCH  14  15
ENDBRANCH  11  14
ENDBRANCH   7  11
ENDBRANCH   6   9
BRANCH   6  21
ATOM     21  CB  SER A   2      11.963 -11.284 -20.198  0.00  0.00    +0.166 C 
BRANCH  21  22
ATOM     22  OG  SER A   2      12.669 -12.500 -20.288  0.00  0.00    -0.380 OA
ATOM     23  H   SER A   2      12.255 -13.070 -20.984  0.00  0.00    +0.211 HD
ENDBRANCH  21  22
ENDBRANCH   6  21
ENDBRANCH   2   6
ENDBRANCH   1   3
BRANCH   1  24
ATOM     24  C   TRP A   3      17.184 -10.314 -20.356  0.00  0.00    +0.241 C 
ATOM     25  O   TRP A   3      18.282  -9.852 -20.630  0.00  0.00    -0.273 OA
ATOM     26  N   GLU A   4      16.754 -11.472 -20.854  0.00  0.00    -0.297 N 
ATOM     27  H   GLU A   4      15.787 -11.794 -20.649  0.00  0.00    +0.150 HD
BRANCH  26  28
ATOM     28  CA  GLU A   4      17.636 -12.301 -21.693  0.00  0.00    +0.149 C 
BRANCH  28  29
ATOM     29  C   GLU A   4      18.340 -11.540 -22.827  0.00  0.00    +0.241 C 
ATOM     30  O   GLU A   4      19.491 -11.830 -23.129  0.00  0.00    -0.273 OA
ATOM     31  N   ASN A   5      17.673 -10.545 -23.418  0.00  0.00    -0.298 N 
ATOM     32  H   ASN A   5      16.718 -10.310 -23.079  0.00  0.00    +0.150 HD
BRANCH  31  33
ATOM     33  CA  ASN A   5      18.241  -9.768 -24.533  0.00  0.00    +0.146 C 
BRANCH  33  34
ATOM     34  C   ASN A   5      19.510  -8.965 -24.251  0.00  0.00    +0.227 C 
ATOM     35  O   ASN A   5      20.207  -8.559 -25.177  0.00  0.00    -0.286 OA
ENDBRANCH  33  34
BRANCH  33  36
ATOM     36  CB  ASN A   5      17.175  -8.868 -25.147  0.00  0.00    +0.112 C 
BRANCH  36  37
ATOM     37  CG  ASN A   5      16.218  -9.640 -26.024  0.00  0.00    +0.222 C 
ATOM     38  ND2 ASN A   5      14.920  -9.405 -25.848  0.00  0.00    -0.329 N 
ATOM     39 HD21 ASN A   5      14.608  -8.715 -25.135  0.00  0.00    +0.145 HD
ATOM     40 HD22 ASN A   5      14.217  -9.912 -26.423  0.00  0.00    +0.145 HD
ATOM     41  OD1 ASN A   5      16.643 -10.448 -26.855  0.00  0.00    -0.275 OA
ENDBRANCH  36  37
ENDBRANCH  33  36
ENDBRANCH  31  33
ENDBRANCH  28  29
BRANCH  28  42
ATOM     42  CB  GLU A   4      16.937 -13.577 -22.215  0.00  0.00    +0.041 C 
BRANCH  42  43
ATOM     43  CG  GLU A   4      15.418 -13.488 -22.439  0.00  0.00    +0.116 C 
BRANCH  43  44
ATOM     44  CD  GLU A   4      15.037 -12.871 -23.770  0.00  0.00    +0.365 C 
ATOM     45  OE2 GLU A   4      13.937 -12.256 -23.861  0.00  0.00    -0.246 OA
ATOM     46  OE1 GLU A   4      15.825 -13.010 -24.731  0.00  0.00    -0.246 OA
ENDBRANCH  43  44
ENDBRANCH  42  43
ENDBRANCH  28  42
ENDBRANCH  26  28
ENDBRANCH   1  24
BRANCH   1  47
ATOM     47  CB  TRP A   3      16.987  -9.209 -18.118  0.00  0.00    +0.057 C 
BRANCH  47  48
ATOM     48  CG  TRP A   3      16.249  -8.278 -17.193  0.00  0.00    -0.002 A 
ATOM     49  CD2 TRP A   3      16.721  -7.791 -15.937  0.00  0.00    +0.013 A 
ATOM     50  CE3 TRP A   3      17.909  -7.969 -15.212  0.00  0.00    +0.001 A 
ATOM     51  CZ3 TRP A   3      18.046  -7.323 -13.992  0.00  0.00    +0.000 A 
ATOM     52  CH2 TRP A   3      17.014  -6.515 -13.481  0.00  0.00    +0.001 A 
ATOM     53  CZ2 TRP A   3      15.835  -6.338 -14.164  0.00  0.00    +0.017 A 
ATOM     54  CE2 TRP A   3      15.697  -6.986 -15.388  0.00  0.00    +0.056 A 
ATOM     55  NE1 TRP A   3      14.641  -7.004 -16.264  0.00  0.00    -0.352 N 
ATOM     56  HE1 TRP A   3      13.735  -6.510 -16.133  0.00  0.00    +0.166 HD
ATOM     57  CD1 TRP A   3      14.980  -7.785 -17.344  0.00  0.00    +0.068 A 
ENDBRANCH  47  48
ENDBRANCH   1  47
TORSDOF 22
REMARK  Name = ../refined-set-2016/2xyd/2xyd_pocket.pdb
REMARK  300 active torsions:
REMARK  status: ('A' for Active; 'I' for Inactive)
REMARK    1  A    between atoms: _1  and  _3
REMARK    2  A    between atoms: _3  and  _4
REMARK    3  A    between atoms: _3  and  _6
REMARK    4  A    between atoms: _6  and  _7
REMARK    5  A    between atoms: _10  and  _12
REMARK    6  A    between atoms: _12  and  _13
REMARK    7  A    between atoms: _12  and  _15
REMARK    8  A    between atoms: _15  and  _16
REMARK    9  A    between atoms: _21  and  _22
REMARK   10  A    between atoms: _24  and  _26
REMARK   11  A    between atoms: _26  and  _27
REMARK   12  A    between atoms: _26  and  _29
REMARK   13  A    between atoms: _29  and  _30
REMARK   14  A    between atoms: _35  and  _36
REMARK   15  A    between atoms: _38  and  _40
REMARK   16  A    between atoms: _40  and  _41
REMARK   17  A    between atoms: _40  and  _43
REMARK   18  A    between atoms: _43  and  _44
REMARK   19  A    between atoms: _47  and  _49
REMARK   20  A    between atoms: _49  and  _50
REMARK   21  A    between atoms: _49  and  _52
REMARK   22  A    between atoms: _52  and  _53
REMARK   23  A    between atoms: _63  and  _65
REMARK   24  A    between atoms: _65  and  _66
REMARK   25  A    between atoms: _65  and  _68
REMARK   26  A    between atoms: _68  and  _69
REMARK   27  A    between atoms: _69  and  _70
REMARK   28  A    between atoms: _75  and  _77
REMARK   29  A    between atoms: _77  and  _78
REMARK   30  A    between atoms: _77  and  _80
REMARK   31  A    between atoms: _80  and  _81
REMARK   32  A    between atoms: _83  and  _85
REMARK   33  A    between atoms: _85  and  _86
REMARK   34  A    between atoms: _85  and  _88
REMARK   35  A    between atoms: _88  and  _89
REMARK   36  A    between atoms: _99  and  _101
REMARK   37  A    between atoms: _101  and  _102
REMARK   38  A    between atoms: _101  and  _104
REMARK   39  A    between atoms: _104  and  _105
REMARK   40  A    between atoms: _105  and  _106
REMARK   41  A    between atoms: _109  and  _111
REMARK   42  A    between atoms: _111  and  _112
REMARK   43  A    between atoms: _111  and  _114
REMARK   44  A    between atoms: _114  and  _115
REMARK   45  A    between atoms: _120  and  _122
REMARK   46  A    between atoms: _122  and  _123
REMARK   47  A    between atoms: _122  and  _125
REMARK   48  A    between atoms: _128  and  _130
REMARK   49  A    between atoms: _130  and  _131
REMARK   50  A    between atoms: _130  and  _133
REMARK   51  A    between atoms: _135  and  _137
REMARK   52  A    between atoms: _137  and  _138
REMARK   53  A    between atoms: _137  and  _140
REMARK   54  A    between atoms: _140  and  _141
REMARK   55  A    between atoms: _146  and  _148
REMARK   56  A    between atoms: _148  and  _149
REMARK   57  A    between atoms: _152  and  _154
REMARK   58  A    between atoms: _154  and  _155
REMARK   59  A    between atoms: _154  and  _157
REMARK   60  A    between atoms: _157  and  _158
REMARK   61  A    between atoms: _160  and  _162
REMARK   62  A    between atoms: _162  and  _163
REMARK   63  A    between atoms: _166  and  _168
REMARK   64  A    between atoms: _168  and  _169
REMARK   65  A    between atoms: _168  and  _171
REMARK   66  A    between atoms: _171  and  _172
REMARK   67  A    between atoms: _182  and  _184
REMARK   68  A    between atoms: _184  and  _185
REMARK   69  A    between atoms: _184  and  _187
REMARK   70  A    between atoms: _187  and  _188
REMARK   71  A    between atoms: _191  and  _193
REMARK   72  A    between atoms: _193  and  _194
REMARK   73  A    between atoms: _193  and  _196
REMARK   74  A    between atoms: _196  and  _197
REMARK   75  A    between atoms: _202  and  _203
REMARK   76  A    between atoms: _205  and  _207
REMARK   77  A    between atoms: _207  and  _208
REMARK   78  A    between atoms: _207  and  _210
REMARK   79  A    between atoms: _210  and  _211
REMARK   80  A    between atoms: _211  and  _212
REMARK   81  A    between atoms: _212  and  _213
REMARK   82  A    between atoms: _222  and  _224
REMARK   83  A    between atoms: _224  and  _225
REMARK   84  A    between atoms: _224  and  _227
REMARK   85  A    between atoms: _227  and  _228
REMARK   86  A    between atoms: _231  and  _233
REMARK   87  A    between atoms: _233  and  _234
REMARK   88  A    between atoms: _233  and  _236
REMARK   89  A    between atoms: _236  and  _237
REMARK   90  A    between atoms: _237  and  _238
REMARK   91  A    between atoms: _238  and  _239
REMARK   92  A    between atoms: _239  and  _240
REMARK   93  A    between atoms: _244  and  _246
REMARK   94  A    between atoms: _246  and  _247
REMARK   95  A    between atoms: _246  and  _249
REMARK   96  A    between atoms: _249  and  _250
REMARK   97  A    between atoms: _250  and  _251
REMARK   98  A    between atoms: _256  and  _258
REMARK   99  A    between atoms: _258  and  _259
REMARK  100  A    between atoms: _258  and  _261
REMARK  101  A    between atoms: _261  and  _262
REMARK  102  A    between atoms: _262  and  _263
REMARK  103  A    between atoms: _263  and  _264
REMARK  104  A    between atoms: _273  and  _275
REMARK  105  A    between atoms: _275  and  _276
REMARK  106  A    between atoms: _275  and  _278
REMARK  107  A    between atoms: _278  and  _279
REMARK  108  A    between atoms: _282  and  _284
REMARK  109  A    between atoms: _284  and  _285
REMARK  110  A    between atoms: _284  and  _287
REMARK  111  A    between atoms: _287  and  _288
REMARK  112  A    between atoms: _288  and  _289
REMARK  113  A    between atoms: _291  and  _293
REMARK  114  A    between atoms: _293  and  _294
REMARK  115  A    between atoms: _293  and  _296
REMARK  116  A    between atoms: _296  and  _297
REMARK  117  A    between atoms: _300  and  _302
REMARK  118  A    between atoms: _302  and  _303
REMARK  119  A    between atoms: _302  and  _305
REMARK  120  A    between atoms: _305  and  _306
REMARK  121  A    between atoms: _306  and  _307
REMARK  122  A    between atoms: _312  and  _314
REMARK  123  A    between atoms: _314  and  _315
REMARK  124  A    between atoms: _314  and  _317
REMARK  125  A    between atoms: _317  and  _318
REMARK  126  A    between atoms: _321  and  _323
REMARK  127  A    between atoms: _323  and  _324
REMARK  128  A    between atoms: _323  and  _326
REMARK  129  A    between atoms: _326  and  _327
REMARK  130  A    between atoms: _329  and  _331
REMARK  131  A    between atoms: _331  and  _332
REMARK  132  A    between atoms: _331  and  _334
REMARK  133  A    between atoms: _334  and  _335
REMARK  134  A    between atoms: _338  and  _340
REMARK  135  A    between atoms: _340  and  _341
REMARK  136  A    between atoms: _340  and  _343
REMARK  137  A    between atoms: _346  and  _348
REMARK  138  A    between atoms: _348  and  _349
REMARK  139  A    between atoms: _348  and  _351
REMARK  140  A    between atoms: _351  and  _352
REMARK  141  A    between atoms: _357  and  _359
REMARK  142  A    between atoms: _370  and  _373
REMARK  143  A    between atoms: _373  and  _374
REMARK  144  A    between atoms: _374  and  _375
REMARK  145  A    between atoms: _380  and  _383
REMARK  146  A    between atoms: _383  and  _384
REMARK  147  A    between atoms: _384  and  _385
REMARK  148  A    between atoms: _394  and  _395
REMARK  149  A    between atoms: _403  and  _405
REMARK  150  A    between atoms: _405  and  _406
REMARK  151  A    between atoms: _405  and  _408
REMARK  152  A    between atoms: _408  and  _409
REMARK  153  A    between atoms: _412  and  _414
REMARK  154  A    between atoms: _414  and  _415
REMARK  155  A    between atoms: _414  and  _417
REMARK  156  A    between atoms: _417  and  _418
REMARK  157  A    between atoms: _423  and  _424
REMARK  158  A    between atoms: _426  and  _428
REMARK  159  A    between atoms: _428  and  _429
REMARK  160  A    between atoms: _428  and  _431
REMARK  161  A    between atoms: _431  and  _432
REMARK  162  A    between atoms: _437  and  _438
REMARK  163  A    between atoms: _440  and  _442
REMARK  164  A    between atoms: _442  and  _443
REMARK  165  A    between atoms: _442  and  _445
REMARK  166  A    between atoms: _445  and  _446
REMARK  167  A    between atoms: _451  and  _452
REMARK  168  A    between atoms: _454  and  _456
REMARK  169  A    between atoms: _456  and  _457
REMARK  170  A    between atoms: _456  and  _459
REMARK  171  A    between atoms: _459  and  _460
REMARK  172  A    between atoms: _460  and  _461
REMARK  173  A    between atoms: _461  and  _462
REMARK  174  A    between atoms: _471  and  _473
REMARK  175  A    between atoms: _473  and  _474
REMARK  176  A    between atoms: _473  and  _476
REMARK  177  A    between atoms: _476  and  _477
REMARK  178  A    between atoms: _477  and  _478
REMARK  179  A    between atoms: _478  and  _479
REMARK  180  A    between atoms: _488  and  _490
REMARK  181  A    between atoms: _490  and  _491
REMARK  182  A    between atoms: _493  and  _495
REMARK  183  A    between atoms: _495  and  _496
REMARK  184  A    between atoms: _499  and  _501
REMARK  185  A    between atoms: _501  and  _502
REMARK  186  A    between atoms: _501  and  _504
REMARK  187  A    between atoms: _504  and  _505
REMARK  188  A    between atoms: _511  and  _512
REMARK  189  A    between atoms: _517  and  _519
REMARK  190  A    between atoms: _519  and  _520
REMARK  191  A    between atoms: _522  and  _524
REMARK  192  A    between atoms: _524  and  _525
REMARK  193  A    between atoms: _524  and  _527
REMARK  194  A    between atoms: _527  and  _528
REMARK  195  A    between atoms: _534  and  _536
REMARK  196  A    between atoms: _536  and  _537
REMARK  197  A    between atoms: _536  and  _539
REMARK  198  A    between atoms: _539  and  _540
REMARK  199  A    between atoms: _545  and  _547
REMARK  200  A    between atoms: _547  and  _548
REMARK  201  A    between atoms: _547  and  _550
REMARK  202  A    between atoms: _550  and  _551
REMARK  203  A    between atoms: _551  and  _552
REMARK  204  A    between atoms: _552  and  _553
REMARK  205  A    between atoms: _553  and  ZN_801
REMARK  206  A    between atoms: _555  and  _557
REMARK  207  A    between atoms: _557  and  _558
REMARK  208  A    between atoms: _561  and  _563
REMARK  209  A    between atoms: _563  and  _564
REMARK  210  A    between atoms: _566  and  _568
REMARK  211  A    between atoms: _568  and  _569
REMARK  212  A    between atoms: _568  and  _571
REMARK  213  A    between atoms: _571  and  _572
REMARK  214  A    between atoms: _575  and  _577
REMARK  215  A    between atoms: _577  and  _578
REMARK  216  A    between atoms: _581  and  _583
REMARK  217  A    between atoms: _583  and  _584
REMARK  218  A    between atoms: _583  and  _586
REMARK  219  A    between atoms: _586  and  _587
REMARK  220  A    between atoms: _587  and  _588
REMARK  221  A    between atoms: _591  and  _593
REMARK  222  A    between atoms: _593  and  _594
REMARK  223  A    between atoms: _593  and  _596
REMARK  224  A    between atoms: _596  and  _597
REMARK  225  A    between atoms: _597  and  _598
REMARK  226  A    between atoms: _598  and  _599
REMARK  227  A    between atoms: _599  and  _600
REMARK  228  A    between atoms: _604  and  _606
REMARK  229  A    between atoms: _606  and  _607
REMARK  230  A    between atoms: _606  and  _609
REMARK  231  A    between atoms: _609  and  _610
REMARK  232  A    between atoms: _616  and  _618
REMARK  233  A    between atoms: _618  and  _619
REMARK  234  A    between atoms: _618  and  _621
REMARK  235  A    between atoms: _621  and  _622
REMARK  236  A    between atoms: _628  and  _630
REMARK  237  A    between atoms: _630  and  _631
REMARK  238  A    between atoms: _633  and  _635
REMARK  239  A    between atoms: _635  and  _636
REMARK  240  A    between atoms: _635  and  _638
REMARK  241  A    between atoms: _641  and  _643
REMARK  242  A    between atoms: _643  and  _644
REMARK  243  A    between atoms: _643  and  _646
REMARK  244  A    between atoms: _646  and  _647
REMARK  245  A    between atoms: _647  and  _648
REMARK  246  A    between atoms: _648  and  _649
REMARK  247  A    between atoms: _649  and  _650
REMARK  248  A    between atoms: _654  and  _656
REMARK  249  A    between atoms: _656  and  _657
REMARK  250  A    between atoms: _656  and  _659
REMARK  251  A    between atoms: _659  and  _660
REMARK  252  A    between atoms: _666  and  _668
REMARK  253  A    between atoms: _668  and  _669
REMARK  254  A    between atoms: _668  and  _671
REMARK  255  A    between atoms: _671  and  _672
REMARK  256  A    between atoms: _677  and  _679
REMARK  257  A    between atoms: _679  and  _680
REMARK  258  A    between atoms: _679  and  _682
REMARK  259  A    between atoms: _682  and  _683
REMARK  260  A    between atoms: _688  and  _690
REMARK  261  A    between atoms: _690  and  _691
REMARK  262  A    between atoms: _690  and  _693
REMARK  263  A    between atoms: _696  and  _698
REMARK  264  A    between atoms: _698  and  _699
REMARK  265  A    between atoms: _698  and  _701
REMARK  266  A    between atoms: _701  and  _702
REMARK  267  A    between atoms: _706  and  _707
REMARK  268  A    between atoms: _712  and  _714
REMARK  269  A    between atoms: _714  and  _715
REMARK  270  A    between atoms: _714  and  _717
REMARK  271  A    between atoms: _717  and  _718
REMARK  272  A    between atoms: _723  and  _724
REMARK  273  A    between atoms: _726  and  _728
REMARK  274  A    between atoms: _728  and  _729
REMARK  275  A    between atoms: _728  and  _731
REMARK  276  A    between atoms: _731  and  _732
REMARK  277  A    between atoms: _732  and  _733
REMARK  278  A    between atoms: _733  and  _734
REMARK  279  A    between atoms: _743  and  _745
REMARK  280  A    between atoms: _745  and  _746
REMARK  281  A    between atoms: _745  and  _748
REMARK  282  A    between atoms: _748  and  _749
REMARK  283  A    between atoms: _754  and  _755
REMARK  284  A    between atoms: _757  and  _759
REMARK  285  A    between atoms: _759  and  _760
REMARK  286  A    between atoms: _759  and  _762
REMARK  287  A    between atoms: _762  and  _763
REMARK  288  A    between atoms: _769  and  _771
REMARK  289  A    between atoms: _771  and  _772
REMARK  290  A    between atoms: _771  and  _774
REMARK  291  A    between atoms: _774  and  _775
REMARK  292  A    between atoms: _777  and  _779
REMARK  293  A    between atoms: _779  and  _780
REMARK  294  A    between atoms: _779  and  _782
REMARK  295  A    between atoms: _782  and  _783
REMARK  296  A    between atoms: _789  and  _791
REMARK  297  A    between atoms: _791  and  _792
REMARK  298  A    between atoms: _791  and  _794
REMARK  299  A    between atoms: _794  and  _795
REMARK  300  A    between atoms: _795  and  _796
REMARK                            x       y       z     vdW  Elec       q    Type
REMARK                         _______ _______ _______ _____ _____    ______ ____
ROOT
ATOM      1  CA  SER A   5      -2.396 -17.698 -27.236  0.00  0.00    +0.178 C 
ENDROOT
BRANCH   1   2
ATOM      2  C   SER A   5      -2.587 -19.101 -27.770  0.00  0.00    +0.243 C 
ATOM      3  N   ALA A   6      -2.966 -20.007 -26.879  0.00  0.00    -0.297 N 
ATOM      4  H   ALA A   6      -3.022 -19.723 -25.880  0.00  0.00    +0.150 HD
ATOM      5  O   SER A   5      -2.386 -19.351 -28.956  0.00  0.00    -0.273 OA
BRANCH   3   6
ATOM      6  CA  ALA A   6      -3.309 -21.383 -27.228  0.00  0.00    +0.149 C 
ATOM      7  CB  ALA A   6      -2.629 -22.346 -26.274  0.00  0.00    +0.031 C 
BRANCH   6   8
ATOM      8  C   ALA A   6      -4.827 -21.529 -27.123  0.00  0.00    +0.241 C 
ATOM      9  O   ALA A   6      -5.436 -21.057 -26.155  0.00  0.00    -0.273 OA
ATOM     10  N   TRP A   7      -5.428 -22.204 -28.092  0.00  0.00    -0.297 N 
ATOM     11  H   TRP A   7      -4.857 -22.755 -28.765  0.00  0.00    +0.150 HD
BRANCH  10  12
ATOM     12  CA  TRP A   7      -6.885 -22.184 -28.227  0.00  0.00    +0.153 C 
BRANCH  12  13
ATOM     13  C   TRP A   7      -7.501 -23.573 -28.160  0.00  0.00    +0.241 C 
ATOM     14  N   ASP A   8      -8.504 -23.710 -27.295  0.00  0.00    -0.298 N 
ATOM     15  H   ASP A   8      -8.684 -22.932 -26.629  0.00  0.00    +0.150 HD
ATOM     16  O   TRP A   7      -7.053 -24.492 -28.858  0.00  0.00    -0.273 OA
BRANCH  14  17
ATOM     17  CA  ASP A   8      -9.363 -24.881 -27.225  0.00  0.00    +0.148 C 
BRANCH  17  18
ATOM     18  C   ASP A   8     -10.758 -24.483 -27.736  0.00  0.00    +0.227 C 
ATOM     19  O   ASP A   8     -11.393 -23.583 -27.189  0.00  0.00    -0.286 OA
ENDBRANCH  17  18
BRANCH  17  20
ATOM     20  CB  ASP A   8      -9.458 -25.373 -25.776  0.00  0.00    +0.142 C 
BRANCH  20  21
ATOM     21  CG  ASP A   8     -10.053 -26.769 -25.657  0.00  0.00    +0.367 C 
ATOM     22  OD2 ASP A   8      -9.855 -27.417 -24.599  0.00  0.00    -0.246 OA
ATOM     23  OD1 ASP A   8     -10.726 -27.224 -26.596  0.00  0.00    -0.246 OA
ENDBRANCH  20  21
ENDBRANCH  17  20
ENDBRANCH  14  17
ENDBRANCH  12  13
BRANCH  12  24
ATOM     24  CB  TRP A   7      -7.289 -21.503 -29.537  0.00  0.00    +0.057 C 
BRANCH  24  25
ATOM     25  CG  TRP A   7      -6.891 -20.057 -29.656  0.00  0.00    -0.002 A 
ATOM     26  CD1 TRP A   7      -5.626 -19.551 -29.686  0.00  0.00    +0.068 A 
ATOM     27  NE1 TRP A   7      -5.664 -18.185 -29.837  0.00  0.00    -0.352 N 
ATOM     28  HE1 TRP A   7      -4.835 -17.559 -29.889  0.00  0.00    +0.166 HD
ATOM     29  CE2 TRP A   7      -6.973 -17.782 -29.908  0.00  0.00    +0.056 A 
ATOM     30  CZ2 TRP A   7      -7.516 -16.496 -30.069  0.00  0.00    +0.017 A 
ATOM     31  CH2 TRP A   7      -8.883 -16.387 -30.121  0.00  0.00    +0.001 A 
ATOM     32  CZ3 TRP A   7      -9.714 -17.521 -30.024  0.00  0.00    +0.000 A 
ATOM     33  CE3 TRP A   7      -9.171 -18.805 -29.876  0.00  0.00    +0.001 A 
ATOM     34  CD2 TRP A   7      -7.775 -18.939 -29.813  0.00  0.00    +0.013 A 
ENDBRANCH  24  25
ENDBRANCH  12  24
ENDBRANCH  10  12
ENDBRANCH   6   8
ENDBRANCH   3   6
ENDBRANCH   1   2
BRANCH   1  37
ATOM     35  C   ALA A   4      -0.588 -16.073 -27.528  0.00  0.00    +0.241 C 
ATOM     36  O   ALA A   4      -0.747 -15.586 -26.405  0.00  0.00    -0.273 OA
ATOM     37  N   SER A   5      -1.353 -17.042 -28.011  0.00  0.00    -0.295 N 
ATOM     38  H   SER A   5      -1.200 -17.349 -28.993  0.00  0.00    +0.150 HD
BRANCH  35  39
ATOM     39  CA  ALA A   4       0.489 -15.539 -28.486  0.00  0.00    +0.149 C 
ATOM     40  CB  ALA A   4       1.831 -16.231 -28.261  0.00  0.00    +0.031 C 
BRANCH  39  42
ATOM     41  C   HIS A   3      -0.327 -13.238 -28.608  0.00  0.00    +0.241 C 
ATOM     42  N   ALA A   4       0.657 -14.095 -28.376  0.00  0.00    -0.297 N 
ATOM     43  H   ALA A   4       1.589 -13.721 -28.104  0.00  0.00    +0.150 HD
ATOM     44  O   HIS A   3      -1.487 -13.581 -28.849  0.00  0.00    -0.273 OA
BRANCH  41  45
ATOM     45  CA  HIS A   3       0.073 -11.773 -28.570  0.00  0.00    +0.155 C 
BRANCH  45  47
ATOM     46  C   CYS A   2       0.207 -11.503 -30.990  0.00  0.00    +0.242 C 
ATOM     47  N   HIS A   3      -0.269 -11.099 -29.815  0.00  0.00    -0.297 N 
ATOM     48  H   HIS A   3      -0.905 -10.277 -29.785  0.00  0.00    +0.150 HD
ATOM     49  O   CYS A   2       0.948 -12.473 -31.121  0.00  0.00    -0.273 OA
BRANCH  46  50
ATOM     50  CA  CYS A   2      -0.242 -10.719 -32.221  0.00  0.00    +0.160 C 
BRANCH  50  52
ATOM     51  C   VAL A   1      -2.644 -10.661 -32.296  0.00  0.00    +0.238 C 
ATOM     52  N   CYS A   2      -1.509 -10.008 -32.077  0.00  0.00    -0.297 N 
ATOM     53  H   CYS A   2      -1.522  -9.004 -31.807  0.00  0.00    +0.150 HD
ATOM     54  O   VAL A   1      -2.667 -11.864 -32.580  0.00  0.00    -0.274 OA
BRANCH  51  55
ATOM     55  CA  VAL A   1      -3.940  -9.845 -32.221  0.00  0.00    +0.145 C 
BRANCH  55  56
ATOM     56  CB  VAL A   1      -4.960 -10.498 -31.253  0.00  0.00    +0.025 C 
ATOM     57  CG2 VAL A   1      -4.358 -10.689 -29.847  0.00  0.00    +0.002 C 
ATOM     58  CG1 VAL A   1      -6.228  -9.651 -31.171  0.00  0.00    +0.002 C 
ENDBRANCH  55  56
BRANCH  55  59
ATOM     59  N   VAL A   1      -4.473  -9.780 -33.577  0.00  0.00    -0.238 NA
ATOM     60  H   VAL A   1      -5.349 -10.296 -33.796  0.00  0.00    +0.142 HD
ENDBRANCH  55  59
ENDBRANCH  51  55
ENDBRANCH  50  52
BRANCH  50  61
ATOM     61  CB  CYS A   2       0.867  -9.814 -32.743  0.00  0.00    +0.098 C 
ATOM     62  SG  CYS A   2       1.058  -9.929 -34.544  0.00  0.00    -0.080 S 
ENDBRANCH  50  61
ENDBRANCH  46  50
ENDBRANCH  45  47
BRANCH  45  63
ATOM     63  CB  HIS A   3      -0.579 -11.091 -27.377  0.00  0.00    +0.076 C 
BRANCH  63  64
ATOM     64  CG  HIS A   3       0.091 -11.396 -26.078  0.00  0.00    +0.082 A 
ATOM     65  CD2 HIS A   3      -0.034 -12.448 -25.236  0.00  0.00    +0.115 A 
ATOM     66  NE2 HIS A   3       0.827 -12.232 -24.189  0.00  0.00    -0.221 NA
ATOM     67  CE1 HIS A   3       1.470 -11.097 -24.388  0.00  0.00    +0.199 A 
ATOM     68  ND1 HIS A   3       1.050 -10.575 -25.526  0.00  0.00    -0.227 NA
ENDBRANCH  63  64
ENDBRANCH  45  63
ENDBRANCH  41  45
ENDBRANCH  39  42
ENDBRANCH  35  39
ENDBRANCH   1  37
BRANCH   1  69
ATOM     69  CB  SER A   5      -3.721 -16.926 -27.310  0.00  0.00    +0.166 C 
BRANCH  69  70
ATOM     70  OG  SER A   5      -3.892 -16.315 -28.586  0.00  0.00    -0.380 OA
ATOM     71  H   SER A   5      -3.148 -15.683 -28.750  0.00  0.00    +0.211 HD
ENDBRANCH  69  70
ENDBRANCH   1  69
TORSDOF 26
REMARK  Name = ../refined-set-2016/2xyd/2xyd_pocket.pdb
REMARK  300 active torsions:
REMARK  status: ('A' for Active; 'I' for Inactive)
REMARK    1  A    between atoms: _1  and  _3
REMARK    2  A    between atoms: _3  and  _4
REMARK    3  A    between atoms: _3  and  _6
REMARK    4  A    between atoms: _6  and  _7
REMARK    5  A    between atoms: _10  and  _12
REMARK    6  A    between atoms: _12  and  _13
REMARK    7  A    between atoms: _12  and  _15
REMARK    8  A    between atoms: _15  and  _16
REMARK    9  A    between atoms: _21  and  _22
REMARK   10  A    between atoms: _24  and  _26
REMARK   11  A    between atoms: _26  and  _27
REMARK   12  A    between atoms: _26  and  _29
REMARK   13  A    between atoms: _29  and  _30
REMARK   14  A    between atoms: _35  and  _36
REMARK   15  A    between atoms: _38  and  _40
REMARK   16  A    between atoms: _40  and  _41
REMARK   17  A    between atoms: _40  and  _43
REMARK   18  A    between atoms: _43  and  _44
REMARK   19  A    between atoms: _47  and  _49
REMARK   20  A    between atoms: _49  and  _50
REMARK   21  A    between atoms: _49  and  _52
REMARK   22  A    between atoms: _52  and  _53
REMARK   23  A    between atoms: _63  and  _65
REMARK   24  A    between atoms: _65  and  _66
REMARK   25  A    between atoms: _65  and  _68
REMARK   26  A    between atoms: _68  and  _69
REMARK   27  A    between atoms: _69  and  _70
REMARK   28  A    between atoms: _75  and  _77
REMARK   29  A    between atoms: _77  and  _78
REMARK   30  A    between atoms: _77  and  _80
REMARK   31  A    between atoms: _80  and  _81
REMARK   32  A    between atoms: _83  and  _85
REMARK   33  A    between atoms: _85  and  _86
REMARK   34  A    between atoms: _85  and  _88
REMARK   35  A    between atoms: _88  and  _89
REMARK   36  A    between atoms: _99  and  _101
REMARK   37  A    between atoms: _101  and  _102
REMARK   38  A    between atoms: _101  and  _104
REMARK   39  A    between atoms: _104  and  _105
REMARK   40  A    between atoms: _105  and  _106
REMARK   41  A    between atoms: _109  and  _111
REMARK   42  A    between atoms: _111  and  _112
REMARK   43  A    between atoms: _111  and  _114
REMARK   44  A    between atoms: _114  and  _115
REMARK   45  A    between atoms: _120  and  _122
REMARK   46  A    between atoms: _122  and  _123
REMARK   47  A    between atoms: _122  and  _125
REMARK   48  A    between atoms: _128  and  _130
REMARK   49  A    between atoms: _130  and  _131
REMARK   50  A    between atoms: _130  and  _133
REMARK   51  A    between atoms: _135  and  _137
REMARK   52  A    between atoms: _137  and  _138
REMARK   53  A    between atoms: _137  and  _140
REMARK   54  A    between atoms: _140  and  _141
REMARK   55  A    between atoms: _146  and  _148
REMARK   56  A    between atoms: _148  and  _149
REMARK   57  A    between atoms: _152  and  _154
REMARK   58  A    between atoms: _154  and  _155
REMARK   59  A    between atoms: _154  and  _157
REMARK   60  A    between atoms: _157  and  _158
REMARK   61  A    between atoms: _160  and  _162
REMARK   62  A    between atoms: _162  and  _163
REMARK   63  A    between atoms: _166  and  _168
REMARK   64  A    between atoms: _168  and  _169
REMARK   65  A    between atoms: _168  and  _171
REMARK   66  A    between atoms: _171  and  _172
REMARK   67  A    between atoms: _182  and  _184
REMARK   68  A    between atoms: _184  and  _185
REMARK   69  A    between atoms: _184  and  _187
REMARK   70  A    between atoms: _187  and  _188
REMARK   71  A    between atoms: _191  and  _193
REMARK   72  A    between atoms: _193  and  _194
REMARK   73  A    between atoms: _193  and  _196
REMARK   74  A    between atoms: _196  and  _197
REMARK   75  A    between atoms: _202  and  _203
REMARK   76  A    between atoms: _205  and  _207
REMARK   77  A    between atoms: _207  and  _208
REMARK   78  A    between atoms: _207  and  _210
REMARK   79  A    between atoms: _210  and  _211
REMARK   80  A    between atoms: _211  and  _212
REMARK   81  A    between atoms: _212  and  _213
REMARK   82  A    between atoms: _222  and  _224
REMARK   83  A    between atoms: _224  and  _225
REMARK   84  A    between atoms: _224  and  _227
REMARK   85  A    between atoms: _227  and  _228
REMARK   86  A    between atoms: _231  and  _233
REMARK   87  A    between atoms: _233  and  _234
REMARK   88  A    between atoms: _233  and  _236
REMARK   89  A    between atoms: _236  and  _237
REMARK   90  A    between atoms: _237  and  _238
REMARK   91  A    between atoms: _238  and  _239
REMARK   92  A    between atoms: _239  and  _240
REMARK   93  A    between atoms: _244  and  _246
REMARK   94  A    between atoms: _246  and  _247
REMARK   95  A    between atoms: _246  and  _249
REMARK   96  A    between atoms: _249  and  _250
REMARK   97  A    between atoms: _250  and  _251
REMARK   98  A    between atoms: _256  and  _258
REMARK   99  A    between atoms: _258  and  _259
REMARK  100  A    between atoms: _258  and  _261
REMARK  101  A    between atoms: _261  and  _262
REMARK  102  A    between atoms: _262  and  _263
REMARK  103  A    between atoms: _263  and  _264
REMARK  104  A    between atoms: _273  and  _275
REMARK  105  A    between atoms: _275  and  _276
REMARK  106  A    between atoms: _275  and  _278
REMARK  107  A    between atoms: _278  and  _279
REMARK  108  A    between atoms: _282  and  _284
REMARK  109  A    between atoms: _284  and  _285
REMARK  110  A    between atoms: _284  and  _287
REMARK  111  A    between atoms: _287  and  _288
REMARK  112  A    between atoms: _288  and  _289
REMARK  113  A    between atoms: _291  and  _293
REMARK  114  A    between atoms: _293  and  _294
REMARK  115  A    between atoms: _293  and  _296
REMARK  116  A    between atoms: _296  and  _297
REMARK  117  A    between atoms: _300  and  _302
REMARK  118  A    between atoms: _302  and  _303
REMARK  119  A    between atoms: _302  and  _305
REMARK  120  A    between atoms: _305  and  _306
REMARK  121  A    between atoms: _306  and  _307
REMARK  122  A    between atoms: _312  and  _314
REMARK  123  A    between atoms: _314  and  _315
REMARK  124  A    between atoms: _314  and  _317
REMARK  125  A    between atoms: _317  and  _318
REMARK  126  A    between atoms: _321  and  _323
REMARK  127  A    between atoms: _323  and  _324
REMARK  128  A    between atoms: _323  and  _326
REMARK  129  A    between atoms: _326  and  _327
REMARK  130  A    between atoms: _329  and  _331
REMARK  131  A    between atoms: _331  and  _332
REMARK  132  A    between atoms: _331  and  _334
REMARK  133  A    between atoms: _334  and  _335
REMARK  134  A    between atoms: _338  and  _340
REMARK  135  A    between atoms: _340  and  _341
REMARK  136  A    between atoms: _340  and  _343
REMARK  137  A    between atoms: _346  and  _348
REMARK  138  A    between atoms: _348  and  _349
REMARK  139  A    between atoms: _348  and  _351
REMARK  140  A    between atoms: _351  and  _352
REMARK  141  A    between atoms: _357  and  _359
REMARK  142  A    between atoms: _370  and  _373
REMARK  143  A    between atoms: _373  and  _374
REMARK  144  A    between atoms: _374  and  _375
REMARK  145  A    between atoms: _380  and  _383
REMARK  146  A    between atoms: _383  and  _384
REMARK  147  A    between atoms: _384  and  _385
REMARK  148  A    between atoms: _394  and  _395
REMARK  149  A    between atoms: _403  and  _405
REMARK  150  A    between atoms: _405  and  _406
REMARK  151  A    between atoms: _405  and  _408
REMARK  152  A    between atoms: _408  and  _409
REMARK  153  A    between atoms: _412  and  _414
REMARK  154  A    between atoms: _414  and  _415
REMARK  155  A    between atoms: _414  and  _417
REMARK  156  A    between atoms: _417  and  _418
REMARK  157  A    between atoms: _423  and  _424
REMARK  158  A    between atoms: _426  and  _428
REMARK  159  A    between atoms: _428  and  _429
REMARK  160  A    between atoms: _428  and  _431
REMARK  161  A    between atoms: _431  and  _432
REMARK  162  A    between atoms: _437  and  _438
REMARK  163  A    between atoms: _440  and  _442
REMARK  164  A    between atoms: _442  and  _443
REMARK  165  A    between atoms: _442  and  _445
REMARK  166  A    between atoms: _445  and  _446
REMARK  167  A    between atoms: _451  and  _452
REMARK  168  A    between atoms: _454  and  _456
REMARK  169  A    between atoms: _456  and  _457
REMARK  170  A    between atoms: _456  and  _459
REMARK  171  A    between atoms: _459  and  _460
REMARK  172  A    between atoms: _460  and  _461
REMARK  173  A    between atoms: _461  and  _462
REMARK  174  A    between atoms: _471  and  _473
REMARK  175  A    between atoms: _473  and  _474
REMARK  176  A    between atoms: _473  and  _476
REMARK  177  A    between atoms: _476  and  _477
REMARK  178  A    between atoms: _477  and  _478
REMARK  179  A    between atoms: _478  and  _479
REMARK  180  A    between atoms: _488  and  _490
REMARK  181  A    between atoms: _490  and  _491
REMARK  182  A    between atoms: _493  and  _495
REMARK  183  A    between atoms: _495  and  _496
REMARK  184  A    between atoms: _499  and  _501
REMARK  185  A    between atoms: _501  and  _502
REMARK  186  A    between atoms: _501  and  _504
REMARK  187  A    between atoms: _504  and  _505
REMARK  188  A    between atoms: _511  and  _512
REMARK  189  A    between atoms: _517  and  _519
REMARK  190  A    between atoms: _519  and  _520
REMARK  191  A    between atoms: _522  and  _524
REMARK  192  A    between atoms: _524  and  _525
REMARK  193  A    between atoms: _524  and  _527
REMARK  194  A    between atoms: _527  and  _528
REMARK  195  A    between atoms: _534  and  _536
REMARK  196  A    between atoms: _536  and  _537
REMARK  197  A    between atoms: _536  and  _539
REMARK  198  A    between atoms: _539  and  _540
REMARK  199  A    between atoms: _545  and  _547
REMARK  200  A    between atoms: _547  and  _548
REMARK  201  A    between atoms: _547  and  _550
REMARK  202  A    between atoms: _550  and  _551
REMARK  203  A    between atoms: _551  and  _552
REMARK  204  A    between atoms: _552  and  _553
REMARK  205  A    between atoms: _553  and  ZN_801
REMARK  206  A    between atoms: _555  and  _557
REMARK  207  A    between atoms: _557  and  _558
REMARK  208  A    between atoms: _561  and  _563
REMARK  209  A    between atoms: _563  and  _564
REMARK  210  A    between atoms: _566  and  _568
REMARK  211  A    between atoms: _568  and  _569
REMARK  212  A    between atoms: _568  and  _571
REMARK  213  A    between atoms: _571  and  _572
REMARK  214  A    between atoms: _575  and  _577
REMARK  215  A    between atoms: _577  and  _578
REMARK  216  A    between atoms: _581  and  _583
REMARK  217  A    between atoms: _583  and  _584
REMARK  218  A    between atoms: _583  and  _586
REMARK  219  A    between atoms: _586  and  _587
REMARK  220  A    between atoms: _587  and  _588
REMARK  221  A    between atoms: _591  and  _593
REMARK  222  A    between atoms: _593  and  _594
REMARK  223  A    between atoms: _593  and  _596
REMARK  224  A    between atoms: _596  and  _597
REMARK  225  A    between atoms: _597  and  _598
REMARK  226  A    between atoms: _598  and  _599
REMARK  227  A    between atoms: _599  and  _600
REMARK  228  A    between atoms: _604  and  _606
REMARK  229  A    between atoms: _606  and  _607
REMARK  230  A    between atoms: _606  and  _609
REMARK  231  A    between atoms: _609  and  _610
REMARK  232  A    between atoms: _616  and  _618
REMARK  233  A    between atoms: _618  and  _619
REMARK  234  A    between atoms: _618  and  _621
REMARK  235  A    between atoms: _621  and  _622
REMARK  236  A    between atoms: _628  and  _630
REMARK  237  A    between atoms: _630  and  _631
REMARK  238  A    between atoms: _633  and  _635
REMARK  239  A    between atoms: _635  and  _636
REMARK  240  A    between atoms: _635  and  _638
REMARK  241  A    between atoms: _641  and  _643
REMARK  242  A    between atoms: _643  and  _644
REMARK  243  A    between atoms: _643  and  _646
REMARK  244  A    between atoms: _646  and  _647
REMARK  245  A    between atoms: _647  and  _648
REMARK  246  A    between atoms: _648  and  _649
REMARK  247  A    between atoms: _649  and  _650
REMARK  248  A    between atoms: _654  and  _656
REMARK  249  A    between atoms: _656  and  _657
REMARK  250  A    between atoms: _656  and  _659
REMARK  251  A    between atoms: _659  and  _660
REMARK  252  A    between atoms: _666  and  _668
REMARK  253  A    between atoms: _668  and  _669
REMARK  254  A    between atoms: _668  and  _671
REMARK  255  A    between atoms: _671  and  _672
REMARK  256  A    between atoms: _677  and  _679
REMARK  257  A    between atoms: _679  and  _680
REMARK  258  A    between atoms: _679  and  _682
REMARK  259  A    between atoms: _682  and  _683
REMARK  260  A    between atoms: _688  and  _690
REMARK  261  A    between atoms: _690  and  _691
REMARK  262  A    between atoms: _690  and  _693
REMARK  263  A    between atoms: _696  and  _698
REMARK  264  A    between atoms: _698  and  _699
REMARK  265  A    between atoms: _698  and  _701
REMARK  266  A    between atoms: _701  and  _702
REMARK  267  A    between atoms: _706  and  _707
REMARK  268  A    between atoms: _712  and  _714
REMARK  269  A    between atoms: _714  and  _715
REMARK  270  A    between atoms: _714  and  _717
REMARK  271  A    between atoms: _717  and  _718
REMARK  272  A    between atoms: _723  and  _724
REMARK  273  A    between atoms: _726  and  _728
REMARK  274  A    between atoms: _728  and  _729
REMARK  275  A    between atoms: _728  and  _731
REMARK  276  A    between atoms: _731  and  _732
REMARK  277  A    between atoms: _732  and  _733
REMARK  278  A    between atoms: _733  and  _734
REMARK  279  A    between atoms: _743  and  _745
REMARK  280  A    between atoms: _745  and  _746
REMARK  281  A    between atoms: _745  and  _748
REMARK  282  A    between atoms: _748  and  _749
REMARK  283  A    between atoms: _754  and  _755
REMARK  284  A    between atoms: _757  and  _759
REMARK  285  A    between atoms: _759  and  _760
REMARK  286  A    between atoms: _759  and  _762
REMARK  287  A    between atoms: _762  and  _763
REMARK  288  A    between atoms: _769  and  _771
REMARK  289  A    between atoms: _771  and  _772
REMARK  290  A    between atoms: _771  and  _774
REMARK  291  A    between atoms: _774  and  _775
REMARK  292  A    between atoms: _777  and  _779
REMARK  293  A    between atoms: _779  and  _780
REMARK  294  A    between atoms: _779  and  _782
REMARK  295  A    between atoms: _782  and  _783
REMARK  296  A    between atoms: _789  and  _791
REMARK  297  A    between atoms: _791  and  _792
REMARK  298  A    between atoms: _791  and  _794
REMARK  299  A    between atoms: _794  and  _795
REMARK  300  A    between atoms: _795  and  _796
REMARK                            x       y       z     vdW  Elec       q    Type
REMARK                         _______ _______ _______ _____ _____    ______ ____
ROOT
ATOM      1  CG  TYR A   1     -14.419 -25.670 -24.956  0.00  0.00    -0.020 A 
ATOM      2  CD2 TYR A   1     -14.273 -26.388 -23.773  0.00  0.00    -0.001 A 
ATOM      3  CE2 TYR A   1     -13.526 -25.894 -22.716  0.00  0.00    +0.036 A 
ATOM      4  CZ  TYR A   1     -12.909 -24.675 -22.834  0.00  0.00    +0.134 A 
ATOM      5  CE1 TYR A   1     -13.030 -23.930 -24.002  0.00  0.00    +0.036 A 
ATOM      6  CD1 TYR A   1     -13.782 -24.436 -25.060  0.00  0.00    -0.001 A 
ENDROOT
BRANCH   4   7
ATOM      7  OH  TYR A   1     -12.178 -24.207 -21.777  0.00  0.00    -0.506 OA
ATOM      8  HH  TYR A   1     -11.240 -24.067 -22.062  0.00  0.00    +0.292 HD
ENDBRANCH   4   7
BRANCH   1   9
ATOM      9  CB  TYR A   1     -15.216 -26.240 -26.108  0.00  0.00    +0.051 C 
BRANCH   9  10
ATOM     10  CA  TYR A   1     -14.387 -27.207 -26.980  0.00  0.00    +0.137 C 
BRANCH  10  11
ATOM     11  N   TYR A   1     -13.375 -26.468 -27.759  0.00  0.00    -0.239 NA
ATOM     12  H   TYR A   1     -12.369 -26.639 -27.556  0.00  0.00    +0.142 HD
ENDBRANCH  10  11
BRANCH  10  13
ATOM     13  C   TYR A   1     -15.280 -28.138 -27.818  0.00  0.00    +0.224 C 
ATOM     14  O   TYR A   1     -16.448 -28.358 -27.495  0.00  0.00    -0.287 OA
ENDBRANCH  10  13
ENDBRANCH   9  10
ENDBRANCH   1   9
TORSDOF 5
REMARK  Name = ../refined-set-2016/2xyd/2xyd_pocket.pdb
REMARK  300 active torsions:
REMARK  status: ('A' for Active; 'I' for Inactive)
REMARK    1  A    between atoms: _1  and  _3
REMARK    2  A    between atoms: _3  and  _4
REMARK    3  A    between atoms: _3  and  _6
REMARK    4  A    between atoms: _6  and  _7
REMARK    5  A    between atoms: _10  and  _12
REMARK    6  A    between atoms: _12  and  _13
REMARK    7  A    between atoms: _12  and  _15
REMARK    8  A    between atoms: _15  and  _16
REMARK    9  A    between atoms: _21  and  _22
REMARK   10  A    between atoms: _24  and  _26
REMARK   11  A    between atoms: _26  and  _27
REMARK   12  A    between atoms: _26  and  _29
REMARK   13  A    between atoms: _29  and  _30
REMARK   14  A    between atoms: _35  and  _36
REMARK   15  A    between atoms: _38  and  _40
REMARK   16  A    between atoms: _40  and  _41
REMARK   17  A    between atoms: _40  and  _43
REMARK   18  A    between atoms: _43  and  _44
REMARK   19  A    between atoms: _47  and  _49
REMARK   20  A    between atoms: _49  and  _50
REMARK   21  A    between atoms: _49  and  _52
REMARK   22  A    between atoms: _52  and  _53
REMARK   23  A    between atoms: _63  and  _65
REMARK   24  A    between atoms: _65  and  _66
REMARK   25  A    between atoms: _65  and  _68
REMARK   26  A    between atoms: _68  and  _69
REMARK   27  A    between atoms: _69  and  _70
REMARK   28  A    between atoms: _75  and  _77
REMARK   29  A    between atoms: _77  and  _78
REMARK   30  A    between atoms: _77  and  _80
REMARK   31  A    between atoms: _80  and  _81
REMARK   32  A    between atoms: _83  and  _85
REMARK   33  A    between atoms: _85  and  _86
REMARK   34  A    between atoms: _85  and  _88
REMARK   35  A    between atoms: _88  and  _89
REMARK   36  A    between atoms: _99  and  _101
REMARK   37  A    between atoms: _101  and  _102
REMARK   38  A    between atoms: _101  and  _104
REMARK   39  A    between atoms: _104  and  _105
REMARK   40  A    between atoms: _105  and  _106
REMARK   41  A    between atoms: _109  and  _111
REMARK   42  A    between atoms: _111  and  _112
REMARK   43  A    between atoms: _111  and  _114
REMARK   44  A    between atoms: _114  and  _115
REMARK   45  A    between atoms: _120  and  _122
REMARK   46  A    between atoms: _122  and  _123
REMARK   47  A    between atoms: _122  and  _125
REMARK   48  A    between atoms: _128  and  _130
REMARK   49  A    between atoms: _130  and  _131
REMARK   50  A    between atoms: _130  and  _133
REMARK   51  A    between atoms: _135  and  _137
REMARK   52  A    between atoms: _137  and  _138
REMARK   53  A    between atoms: _137  and  _140
REMARK   54  A    between atoms: _140  and  _141
REMARK   55  A    between atoms: _146  and  _148
REMARK   56  A    between atoms: _148  and  _149
REMARK   57  A    between atoms: _152  and  _154
REMARK   58  A    between atoms: _154  and  _155
REMARK   59  A    between atoms: _154  and  _157
REMARK   60  A    between atoms: _157  and  _158
REMARK   61  A    between atoms: _160  and  _162
REMARK   62  A    between atoms: _162  and  _163
REMARK   63  A    between atoms: _166  and  _168
REMARK   64  A    between atoms: _168  and  _169
REMARK   65  A    between atoms: _168  and  _171
REMARK   66  A    between atoms: _171  and  _172
REMARK   67  A    between atoms: _182  and  _184
REMARK   68  A    between atoms: _184  and  _185
REMARK   69  A    between atoms: _184  and  _187
REMARK   70  A    between atoms: _187  and  _188
REMARK   71  A    between atoms: _191  and  _193
REMARK   72  A    between atoms: _193  and  _194
REMARK   73  A    between atoms: _193  and  _196
REMARK   74  A    between atoms: _196  and  _197
REMARK   75  A    between atoms: _202  and  _203
REMARK   76  A    between atoms: _205  and  _207
REMARK   77  A    between atoms: _207  and  _208
REMARK   78  A    between atoms: _207  and  _210
REMARK   79  A    between atoms: _210  and  _211
REMARK   80  A    between atoms: _211  and  _212
REMARK   81  A    between atoms: _212  and  _213
REMARK   82  A    between atoms: _222  and  _224
REMARK   83  A    between atoms: _224  and  _225
REMARK   84  A    between atoms: _224  and  _227
REMARK   85  A    between atoms: _227  and  _228
REMARK   86  A    between atoms: _231  and  _233
REMARK   87  A    between atoms: _233  and  _234
REMARK   88  A    between atoms: _233  and  _236
REMARK   89  A    between atoms: _236  and  _237
REMARK   90  A    between atoms: _237  and  _238
REMARK   91  A    between atoms: _238  and  _239
REMARK   92  A    between atoms: _239  and  _240
REMARK   93  A    between atoms: _244  and  _246
REMARK   94  A    between atoms: _246  and  _247
REMARK   95  A    between atoms: _246  and  _249
REMARK   96  A    between atoms: _249  and  _250
REMARK   97  A    between atoms: _250  and  _251
REMARK   98  A    between atoms: _256  and  _258
REMARK   99  A    between atoms: _258  and  _259
REMARK  100  A    between atoms: _258  and  _261
REMARK  101  A    between atoms: _261  and  _262
REMARK  102  A    between atoms: _262  and  _263
REMARK  103  A    between atoms: _263  and  _264
REMARK  104  A    between atoms: _273  and  _275
REMARK  105  A    between atoms: _275  and  _276
REMARK  106  A    between atoms: _275  and  _278
REMARK  107  A    between atoms: _278  and  _279
REMARK  108  A    between atoms: _282  and  _284
REMARK  109  A    between atoms: _284  and  _285
REMARK  110  A    between atoms: _284  and  _287
REMARK  111  A    between atoms: _287  and  _288
REMARK  112  A    between atoms: _288  and  _289
REMARK  113  A    between atoms: _291  and  _293
REMARK  114  A    between atoms: _293  and  _294
REMARK  115  A    between atoms: _293  and  _296
REMARK  116  A    between atoms: _296  and  _297
REMARK  117  A    between atoms: _300  and  _302
REMARK  118  A    between atoms: _302  and  _303
REMARK  119  A    between atoms: _302  and  _305
REMARK  120  A    between atoms: _305  and  _306
REMARK  121  A    between atoms: _306  and  _307
REMARK  122  A    between atoms: _312  and  _314
REMARK  123  A    between atoms: _314  and  _315
REMARK  124  A    between atoms: _314  and  _317
REMARK  125  A    between atoms: _317  and  _318
REMARK  126  A    between atoms: _321  and  _323
REMARK  127  A    between atoms: _323  and  _324
REMARK  128  A    between atoms: _323  and  _326
REMARK  129  A    between atoms: _326  and  _327
REMARK  130  A    between atoms: _329  and  _331
REMARK  131  A    between atoms: _331  and  _332
REMARK  132  A    between atoms: _331  and  _334
REMARK  133  A    between atoms: _334  and  _335
REMARK  134  A    between atoms: _338  and  _340
REMARK  135  A    between atoms: _340  and  _341
REMARK  136  A    between atoms: _340  and  _343
REMARK  137  A    between atoms: _346  and  _348
REMARK  138  A    between atoms: _348  and  _349
REMARK  139  A    between atoms: _348  and  _351
REMARK  140  A    between atoms: _351  and  _352
REMARK  141  A    between atoms: _357  and  _359
REMARK  142  A    between atoms: _370  and  _373
REMARK  143  A    between atoms: _373  and  _374
REMARK  144  A    between atoms: _374  and  _375
REMARK  145  A    between atoms: _380  and  _383
REMARK  146  A    between atoms: _383  and  _384
REMARK  147  A    between atoms: _384  and  _385
REMARK  148  A    between atoms: _394  and  _395
REMARK  149  A    between atoms: _403  and  _405
REMARK  150  A    between atoms: _405  and  _406
REMARK  151  A    between atoms: _405  and  _408
REMARK  152  A    between atoms: _408  and  _409
REMARK  153  A    between atoms: _412  and  _414
REMARK  154  A    between atoms: _414  and  _415
REMARK  155  A    between atoms: _414  and  _417
REMARK  156  A    between atoms: _417  and  _418
REMARK  157  A    between atoms: _423  and  _424
REMARK  158  A    between atoms: _426  and  _428
REMARK  159  A    between atoms: _428  and  _429
REMARK  160  A    between atoms: _428  and  _431
REMARK  161  A    between atoms: _431  and  _432
REMARK  162  A    between atoms: _437  and  _438
REMARK  163  A    between atoms: _440  and  _442
REMARK  164  A    between atoms: _442  and  _443
REMARK  165  A    between atoms: _442  and  _445
REMARK  166  A    between atoms: _445  and  _446
REMARK  167  A    between atoms: _451  and  _452
REMARK  168  A    between atoms: _454  and  _456
REMARK  169  A    between atoms: _456  and  _457
REMARK  170  A    between atoms: _456  and  _459
REMARK  171  A    between atoms: _459  and  _460
REMARK  172  A    between atoms: _460  and  _461
REMARK  173  A    between atoms: _461  and  _462
REMARK  174  A    between atoms: _471  and  _473
REMARK  175  A    between atoms: _473  and  _474
REMARK  176  A    between atoms: _473  and  _476
REMARK  177  A    between atoms: _476  and  _477
REMARK  178  A    between atoms: _477  and  _478
REMARK  179  A    between atoms: _478  and  _479
REMARK  180  A    between atoms: _488  and  _490
REMARK  181  A    between atoms: _490  and  _491
REMARK  182  A    between atoms: _493  and  _495
REMARK  183  A    between atoms: _495  and  _496
REMARK  184  A    between atoms: _499  and  _501
REMARK  185  A    between atoms: _501  and  _502
REMARK  186  A    between atoms: _501  and  _504
REMARK  187  A    between atoms: _504  and  _505
REMARK  188  A    between atoms: _511  and  _512
REMARK  189  A    between atoms: _517  and  _519
REMARK  190  A    between atoms: _519  and  _520
REMARK  191  A    between atoms: _522  and  _524
REMARK  192  A    between atoms: _524  and  _525
REMARK  193  A    between atoms: _524  and  _527
REMARK  194  A    between atoms: _527  and  _528
REMARK  195  A    between atoms: _534  and  _536
REMARK  196  A    between atoms: _536  and  _537
REMARK  197  A    between atoms: _536  and  _539
REMARK  198  A    between atoms: _539  and  _540
REMARK  199  A    between atoms: _545  and  _547
REMARK  200  A    between atoms: _547  and  _548
REMARK  201  A    between atoms: _547  and  _550
REMARK  202  A    between atoms: _550  and  _551
REMARK  203  A    between atoms: _551  and  _552
REMARK  204  A    between atoms: _552  and  _553
REMARK  205  A    between atoms: _553  and  ZN_801
REMARK  206  A    between atoms: _555  and  _557
REMARK  207  A    between atoms: _557  and  _558
REMARK  208  A    between atoms: _561  and  _563
REMARK  209  A    between atoms: _563  and  _564
REMARK  210  A    between atoms: _566  and  _568
REMARK  211  A    between atoms: _568  and  _569
REMARK  212  A    between atoms: _568  and  _571
REMARK  213  A    between atoms: _571  and  _572
REMARK  214  A    between atoms: _575  and  _577
REMARK  215  A    between atoms: _577  and  _578
REMARK  216  A    between atoms: _581  and  _583
REMARK  217  A    between atoms: _583  and  _584
REMARK  218  A    between atoms: _583  and  _586
REMARK  219  A    between atoms: _586  and  _587
REMARK  220  A    between atoms: _587  and  _588
REMARK  221  A    between atoms: _591  and  _593
REMARK  222  A    between atoms: _593  and  _594
REMARK  223  A    between atoms: _593  and  _596
REMARK  224  A    between atoms: _596  and  _597
REMARK  225  A    between atoms: _597  and  _598
REMARK  226  A    between atoms: _598  and  _599
REMARK  227  A    between atoms: _599  and  _600
REMARK  228  A    between atoms: _604  and  _606
REMARK  229  A    between atoms: _606  and  _607
REMARK  230  A    between atoms: _606  and  _609
REMARK  231  A    between atoms: _609  and  _610
REMARK  232  A    between atoms: _616  and  _618
REMARK  233  A    between atoms: _618  and  _619
REMARK  234  A    between atoms: _618  and  _621
REMARK  235  A    between atoms: _621  and  _622
REMARK  236  A    between atoms: _628  and  _630
REMARK  237  A    between atoms: _630  and  _631
REMARK  238  A    between atoms: _633  and  _635
REMARK  239  A    between atoms: _635  and  _636
REMARK  240  A    between atoms: _635  and  _638
REMARK  241  A    between atoms: _641  and  _643
REMARK  242  A    between atoms: _643  and  _644
REMARK  243  A    between atoms: _643  and  _646
REMARK  244  A    between atoms: _646  and  _647
REMARK  245  A    between atoms: _647  and  _648
REMARK  246  A    between atoms: _648  and  _649
REMARK  247  A    between atoms: _649  and  _650
REMARK  248  A    between atoms: _654  and  _656
REMARK  249  A    between atoms: _656  and  _657
REMARK  250  A    between atoms: _656  and  _659
REMARK  251  A    between atoms: _659  and  _660
REMARK  252  A    between atoms: _666  and  _668
REMARK  253  A    between atoms: _668  and  _669
REMARK  254  A    between atoms: _668  and  _671
REMARK  255  A    between atoms: _671  and  _672
REMARK  256  A    between atoms: _677  and  _679
REMARK  257  A    between atoms: _679  and  _680
REMARK  258  A    between atoms: _679  and  _682
REMARK  259  A    between atoms: _682  and  _683
REMARK  260  A    between atoms: _688  and  _690
REMARK  261  A    between atoms: _690  and  _691
REMARK  262  A    between atoms: _690  and  _693
REMARK  263  A    between atoms: _696  and  _698
REMARK  264  A    between atoms: _698  and  _699
REMARK  265  A    between atoms: _698  and  _701
REMARK  266  A    between atoms: _701  and  _702
REMARK  267  A    between atoms: _706  and  _707
REMARK  268  A    between atoms: _712  and  _714
REMARK  269  A    between atoms: _714  and  _715
REMARK  270  A    between atoms: _714  and  _717
REMARK  271  A    between atoms: _717  and  _718
REMARK  272  A    between atoms: _723  and  _724
REMARK  273  A    between atoms: _726  and  _728
REMARK  274  A    between atoms: _728  and  _729
REMARK  275  A    between atoms: _728  and  _731
REMARK  276  A    between atoms: _731  and  _732
REMARK  277  A    between atoms: _732  and  _733
REMARK  278  A    between atoms: _733  and  _734
REMARK  279  A    between atoms: _743  and  _745
REMARK  280  A    between atoms: _745  and  _746
REMARK  281  A    between atoms: _745  and  _748
REMARK  282  A    between atoms: _748  and  _749
REMARK  283  A    between atoms: _754  and  _755
REMARK  284  A    between atoms: _757  and  _759
REMARK  285  A    between atoms: _759  and  _760
REMARK  286  A    between atoms: _759  and  _762
REMARK  287  A    between atoms: _762  and  _763
REMARK  288  A    between atoms: _769  and  _771
REMARK  289  A    between atoms: _771  and  _772
REMARK  290  A    between atoms: _771  and  _774
REMARK  291  A    between atoms: _774  and  _775
REMARK  292  A    between atoms: _777  and  _779
REMARK  293  A    between atoms: _779  and  _780
REMARK  294  A    between atoms: _779  and  _782
REMARK  295  A    between atoms: _782  and  _783
REMARK  296  A    between atoms: _789  and  _791
REMARK  297  A    between atoms: _791  and  _792
REMARK  298  A    between atoms: _791  and  _794
REMARK  299  A    between atoms: _794  and  _795
REMARK  300  A    between atoms: _795  and  _796
REMARK                            x       y       z     vdW  Elec       q    Type
REMARK                         _______ _______ _______ _____ _____    ______ ____
ROOT
ATOM      1  C   ILE A   2      -2.068 -20.475 -32.560  0.00  0.00    +0.241 C 
ATOM      2  N   LYS A   3      -2.088 -19.266 -32.006  0.00  0.00    -0.297 N 
ATOM      3  H   LYS A   3      -2.144 -19.195 -30.970  0.00  0.00    +0.150 HD
ATOM      4  O   ILE A   2      -2.114 -20.660 -33.774  0.00  0.00    -0.273 OA
ENDROOT
BRANCH   2   5
ATOM      5  CA  LYS A   3      -2.035 -18.039 -32.784  0.00  0.00    +0.149 C 
BRANCH   5   6
ATOM      6  C   LYS A   3      -0.870 -17.184 -32.283  0.00  0.00    +0.241 C 
ATOM      7  O   LYS A   3      -0.964 -16.544 -31.226  0.00  0.00    -0.273 OA
ATOM      8  N   GLN A   4       0.218 -17.164 -33.051  0.00  0.00    -0.298 N 
ATOM      9  H   GLN A   4       0.185 -17.623 -33.983  0.00  0.00    +0.150 HD
BRANCH   8  10
ATOM     10  CA  GLN A   4       1.458 -16.516 -32.624  0.00  0.00    +0.137 C 
BRANCH  10  11
ATOM     11  C   GLN A   4       2.170 -15.879 -33.808  0.00  0.00    +0.227 C 
ATOM     12  O   GLN A   4       2.424 -16.533 -34.814  0.00  0.00    -0.286 OA
ENDBRANCH  10  11
BRANCH  10  13
ATOM     13  CB  GLN A   4       2.374 -17.524 -31.894  0.00  0.00    +0.037 C 
BRANCH  13  14
ATOM     14  CG  GLN A   4       3.788 -17.025 -31.576  0.00  0.00    +0.087 C 
BRANCH  14  15
ATOM     15  CD  GLN A   4       4.641 -18.041 -30.805  0.00  0.00    +0.219 C 
ATOM     16  OE1 GLN A   4       4.151 -19.071 -30.351  0.00  0.00    -0.275 OA
ATOM     17  NE2 GLN A   4       5.923 -17.739 -30.654  0.00  0.00    -0.329 N 
ATOM     18 HE21 GLN A   4       6.552 -18.385 -30.136  0.00  0.00    +0.145 HD
ATOM     19 HE22 GLN A   4       6.300 -16.856 -31.054  0.00  0.00    +0.145 HD
ENDBRANCH  14  15
ENDBRANCH  13  14
ENDBRANCH  10  13
ENDBRANCH   8  10
ENDBRANCH   5   6
BRANCH   5  20
ATOM     20  CB  LYS A   3      -3.360 -17.277 -32.644  0.00  0.00    +0.029 C 
BRANCH  20  21
ATOM     21  CG  LYS A   3      -3.400 -15.911 -33.344  0.00  0.00    +0.000 C 
BRANCH  21  22
ATOM     22  CD  LYS A   3      -4.597 -15.079 -32.851  0.00  0.00    -0.024 C 
BRANCH  22  23
ATOM     23  CE  LYS A   3      -4.448 -14.678 -31.361  0.00  0.00    -0.086 C 
BRANCH  23  24
ATOM     24  NZ  LYS A   3      -3.105 -14.105 -31.087  0.00  0.00    +0.380 N 
ATOM     25  HZ1 LYS A   3      -3.038 -13.847 -30.082  0.00  0.00    -0.089 HD
ATOM     26  HZ2 LYS A   3      -2.375 -14.810 -31.315  0.00  0.00    -0.089 HD
ATOM     27  HZ3 LYS A   3      -2.965 -13.258 -31.674  0.00  0.00    -0.089 HD
ENDBRANCH  23  24
ENDBRANCH  22  23
ENDBRANCH  21  22
ENDBRANCH  20  21
ENDBRANCH   5  20
ENDBRANCH   2   5
BRANCH   1  28
ATOM     28  CA  ILE A   2      -2.002 -21.661 -31.593  0.00  0.00    +0.148 C 
BRANCH  28  31
ATOM     29  C   ARG A   1      -3.941 -23.105 -31.565  0.00  0.00    +0.238 C 
ATOM     30  O   ARG A   1      -4.275 -22.709 -30.464  0.00  0.00    -0.274 OA
ATOM     31  N   ILE A   2      -2.802 -22.751 -32.137  0.00  0.00    -0.297 N 
ATOM     32  H   ILE A   2      -2.474 -23.256 -32.985  0.00  0.00    +0.150 HD
BRANCH  29  33
ATOM     33  CA  ARG A   1      -4.853 -23.992 -32.391  0.00  0.00    +0.145 C 
BRANCH  33  34
ATOM     34  N   ARG A   1      -5.722 -24.827 -31.575  0.00  0.00    -0.238 NA
ATOM     35  H   ARG A   1      -6.124 -24.440 -30.697  0.00  0.00    +0.142 HD
ENDBRANCH  33  34
BRANCH  33  36
ATOM     36  CB  ARG A   1      -5.688 -23.075 -33.308  0.00  0.00    +0.030 C 
BRANCH  36  37
ATOM     37  CG  ARG A   1      -6.717 -23.797 -34.137  0.00  0.00    +0.045 C 
BRANCH  37  38
ATOM     38  CD  ARG A   1      -7.509 -22.860 -35.035  0.00  0.00    +0.174 C 
BRANCH  38  39
ATOM     39  NE  ARG A   1      -8.375 -23.646 -35.910  0.00  0.00    -0.265 N 
ATOM     40  HE  ARG A   1      -8.319 -24.681 -35.830  0.00  0.00    +0.259 HD
ATOM     41  CZ  ARG A   1      -9.230 -23.148 -36.801  0.00  0.00    +0.342 C 
ATOM     42  NH2 ARG A   1      -9.374 -21.834 -36.960  0.00  0.00    -0.292 N 
ATOM     43 HH21 ARG A   1      -8.813 -21.176 -36.382  0.00  0.00    +0.255 HD
ATOM     44 HH22 ARG A   1     -10.048 -21.466 -37.662  0.00  0.00    +0.255 HD
ATOM     45  NH1 ARG A   1      -9.949 -23.977 -37.539  0.00  0.00    -0.292 N 
ATOM     46 HH11 ARG A   1      -9.843 -25.005 -37.420  0.00  0.00    +0.255 HD
ATOM     47 HH12 ARG A   1     -10.621 -23.601 -38.239  0.00  0.00    +0.255 HD
ENDBRANCH  38  39
ENDBRANCH  37  38
ENDBRANCH  36  37
ENDBRANCH  33  36
ENDBRANCH  29  33
ENDBRANCH  28  31
BRANCH  28  48
ATOM     48  CB  ILE A   2      -0.548 -22.119 -31.328  0.00  0.00    +0.027 C 
ATOM     49  CG2 ILE A   2       0.406 -20.929 -31.203  0.00  0.00    +0.002 C 
BRANCH  48  50
ATOM     50  CG1 ILE A   2      -0.514 -22.989 -30.070  0.00  0.00    +0.002 C 
ATOM     51  CD1 ILE A   2       0.715 -23.889 -29.946  0.00  0.00    +0.000 C 
ENDBRANCH  48  50
ENDBRANCH  28  48
ENDBRANCH   1  28
TORSDOF 22
REMARK  Name = ../refined-set-2016/2xyd/2xyd_pocket.pdb
REMARK  300 active torsions:
REMARK  status: ('A' for Active; 'I' for Inactive)
REMARK    1  A    between atoms: _1  and  _3
REMARK    2  A    between atoms: _3  and  _4
REMARK    3  A    between atoms: _3  and  _6
REMARK    4  A    between atoms: _6  and  _7
REMARK    5  A    between atoms: _10  and  _12
REMARK    6  A    between atoms: _12  and  _13
REMARK    7  A    between atoms: _12  and  _15
REMARK    8  A    between atoms: _15  and  _16
REMARK    9  A    between atoms: _21  and  _22
REMARK   10  A    between atoms: _24  and  _26
REMARK   11  A    between atoms: _26  and  _27
REMARK   12  A    between atoms: _26  and  _29
REMARK   13  A    between atoms: _29  and  _30
REMARK   14  A    between atoms: _35  and  _36
REMARK   15  A    between atoms: _38  and  _40
REMARK   16  A    between atoms: _40  and  _41
REMARK   17  A    between atoms: _40  and  _43
REMARK   18  A    between atoms: _43  and  _44
REMARK   19  A    between atoms: _47  and  _49
REMARK   20  A    between atoms: _49  and  _50
REMARK   21  A    between atoms: _49  and  _52
REMARK   22  A    between atoms: _52  and  _53
REMARK   23  A    between atoms: _63  and  _65
REMARK   24  A    between atoms: _65  and  _66
REMARK   25  A    between atoms: _65  and  _68
REMARK   26  A    between atoms: _68  and  _69
REMARK   27  A    between atoms: _69  and  _70
REMARK   28  A    between atoms: _75  and  _77
REMARK   29  A    between atoms: _77  and  _78
REMARK   30  A    between atoms: _77  and  _80
REMARK   31  A    between atoms: _80  and  _81
REMARK   32  A    between atoms: _83  and  _85
REMARK   33  A    between atoms: _85  and  _86
REMARK   34  A    between atoms: _85  and  _88
REMARK   35  A    between atoms: _88  and  _89
REMARK   36  A    between atoms: _99  and  _101
REMARK   37  A    between atoms: _101  and  _102
REMARK   38  A    between atoms: _101  and  _104
REMARK   39  A    between atoms: _104  and  _105
REMARK   40  A    between atoms: _105  and  _106
REMARK   41  A    between atoms: _109  and  _111
REMARK   42  A    between atoms: _111  and  _112
REMARK   43  A    between atoms: _111  and  _114
REMARK   44  A    between atoms: _114  and  _115
REMARK   45  A    between atoms: _120  and  _122
REMARK   46  A    between atoms: _122  and  _123
REMARK   47  A    between atoms: _122  and  _125
REMARK   48  A    between atoms: _128  and  _130
REMARK   49  A    between atoms: _130  and  _131
REMARK   50  A    between atoms: _130  and  _133
REMARK   51  A    between atoms: _135  and  _137
REMARK   52  A    between atoms: _137  and  _138
REMARK   53  A    between atoms: _137  and  _140
REMARK   54  A    between atoms: _140  and  _141
REMARK   55  A    between atoms: _146  and  _148
REMARK   56  A    between atoms: _148  and  _149
REMARK   57  A    between atoms: _152  and  _154
REMARK   58  A    between atoms: _154  and  _155
REMARK   59  A    between atoms: _154  and  _157
REMARK   60  A    between atoms: _157  and  _158
REMARK   61  A    between atoms: _160  and  _162
REMARK   62  A    between atoms: _162  and  _163
REMARK   63  A    between atoms: _166  and  _168
REMARK   64  A    between atoms: _168  and  _169
REMARK   65  A    between atoms: _168  and  _171
REMARK   66  A    between atoms: _171  and  _172
REMARK   67  A    between atoms: _182  and  _184
REMARK   68  A    between atoms: _184  and  _185
REMARK   69  A    between atoms: _184  and  _187
REMARK   70  A    between atoms: _187  and  _188
REMARK   71  A    between atoms: _191  and  _193
REMARK   72  A    between atoms: _193  and  _194
REMARK   73  A    between atoms: _193  and  _196
REMARK   74  A    between atoms: _196  and  _197
REMARK   75  A    between atoms: _202  and  _203
REMARK   76  A    between atoms: _205  and  _207
REMARK   77  A    between atoms: _207  and  _208
REMARK   78  A    between atoms: _207  and  _210
REMARK   79  A    between atoms: _210  and  _211
REMARK   80  A    between atoms: _211  and  _212
REMARK   81  A    between atoms: _212  and  _213
REMARK   82  A    between atoms: _222  and  _224
REMARK   83  A    between atoms: _224  and  _225
REMARK   84  A    between atoms: _224  and  _227
REMARK   85  A    between atoms: _227  and  _228
REMARK   86  A    between atoms: _231  and  _233
REMARK   87  A    between atoms: _233  and  _234
REMARK   88  A    between atoms: _233  and  _236
REMARK   89  A    between atoms: _236  and  _237
REMARK   90  A    between atoms: _237  and  _238
REMARK   91  A    between atoms: _238  and  _239
REMARK   92  A    between atoms: _239  and  _240
REMARK   93  A    between atoms: _244  and  _246
REMARK   94  A    between atoms: _246  and  _247
REMARK   95  A    between atoms: _246  and  _249
REMARK   96  A    between atoms: _249  and  _250
REMARK   97  A    between atoms: _250  and  _251
REMARK   98  A    between atoms: _256  and  _258
REMARK   99  A    between atoms: _258  and  _259
REMARK  100  A    between atoms: _258  and  _261
REMARK  101  A    between atoms: _261  and  _262
REMARK  102  A    between atoms: _262  and  _263
REMARK  103  A    between atoms: _263  and  _264
REMARK  104  A    between atoms: _273  and  _275
REMARK  105  A    between atoms: _275  and  _276
REMARK  106  A    between atoms: _275  and  _278
REMARK  107  A    between atoms: _278  and  _279
REMARK  108  A    between atoms: _282  and  _284
REMARK  109  A    between atoms: _284  and  _285
REMARK  110  A    between atoms: _284  and  _287
REMARK  111  A    between atoms: _287  and  _288
REMARK  112  A    between atoms: _288  and  _289
REMARK  113  A    between atoms: _291  and  _293
REMARK  114  A    between atoms: _293  and  _294
REMARK  115  A    between atoms: _293  and  _296
REMARK  116  A    between atoms: _296  and  _297
REMARK  117  A    between atoms: _300  and  _302
REMARK  118  A    between atoms: _302  and  _303
REMARK  119  A    between atoms: _302  and  _305
REMARK  120  A    between atoms: _305  and  _306
REMARK  121  A    between atoms: _306  and  _307
REMARK  122  A    between atoms: _312  and  _314
REMARK  123  A    between atoms: _314  and  _315
REMARK  124  A    between atoms: _314  and  _317
REMARK  125  A    between atoms: _317  and  _318
REMARK  126  A    between atoms: _321  and  _323
REMARK  127  A    between atoms: _323  and  _324
REMARK  128  A    between atoms: _323  and  _326
REMARK  129  A    between atoms: _326  and  _327
REMARK  130  A    between atoms: _329  and  _331
REMARK  131  A    between atoms: _331  and  _332
REMARK  132  A    between atoms: _331  and  _334
REMARK  133  A    between atoms: _334  and  _335
REMARK  134  A    between atoms: _338  and  _340
REMARK  135  A    between atoms: _340  and  _341
REMARK  136  A    between atoms: _340  and  _343
REMARK  137  A    between atoms: _346  and  _348
REMARK  138  A    between atoms: _348  and  _349
REMARK  139  A    between atoms: _348  and  _351
REMARK  140  A    between atoms: _351  and  _352
REMARK  141  A    between atoms: _357  and  _359
REMARK  142  A    between atoms: _370  and  _373
REMARK  143  A    between atoms: _373  and  _374
REMARK  144  A    between atoms: _374  and  _375
REMARK  145  A    between atoms: _380  and  _383
REMARK  146  A    between atoms: _383  and  _384
REMARK  147  A    between atoms: _384  and  _385
REMARK  148  A    between atoms: _394  and  _395
REMARK  149  A    between atoms: _403  and  _405
REMARK  150  A    between atoms: _405  and  _406
REMARK  151  A    between atoms: _405  and  _408
REMARK  152  A    between atoms: _408  and  _409
REMARK  153  A    between atoms: _412  and  _414
REMARK  154  A    between atoms: _414  and  _415
REMARK  155  A    between atoms: _414  and  _417
REMARK  156  A    between atoms: _417  and  _418
REMARK  157  A    between atoms: _423  and  _424
REMARK  158  A    between atoms: _426  and  _428
REMARK  159  A    between atoms: _428  and  _429
REMARK  160  A    between atoms: _428  and  _431
REMARK  161  A    between atoms: _431  and  _432
REMARK  162  A    between atoms: _437  and  _438
REMARK  163  A    between atoms: _440  and  _442
REMARK  164  A    between atoms: _442  and  _443
REMARK  165  A    between atoms: _442  and  _445
REMARK  166  A    between atoms: _445  and  _446
REMARK  167  A    between atoms: _451  and  _452
REMARK  168  A    between atoms: _454  and  _456
REMARK  169  A    between atoms: _456  and  _457
REMARK  170  A    between atoms: _456  and  _459
REMARK  171  A    between atoms: _459  and  _460
REMARK  172  A    between atoms: _460  and  _461
REMARK  173  A    between atoms: _461  and  _462
REMARK  174  A    between atoms: _471  and  _473
REMARK  175  A    between atoms: _473  and  _474
REMARK  176  A    between atoms: _473  and  _476
REMARK  177  A    between atoms: _476  and  _477
REMARK  178  A    between atoms: _477  and  _478
REMARK  179  A    between atoms: _478  and  _479
REMARK  180  A    between atoms: _488  and  _490
REMARK  181  A    between atoms: _490  and  _491
REMARK  182  A    between atoms: _493  and  _495
REMARK  183  A    between atoms: _495  and  _496
REMARK  184  A    between atoms: _499  and  _501
REMARK  185  A    between atoms: _501  and  _502
REMARK  186  A    between atoms: _501  and  _504
REMARK  187  A    between atoms: _504  and  _505
REMARK  188  A    between atoms: _511  and  _512
REMARK  189  A    between atoms: _517  and  _519
REMARK  190  A    between atoms: _519  and  _520
REMARK  191  A    between atoms: _522  and  _524
REMARK  192  A    between atoms: _524  and  _525
REMARK  193  A    between atoms: _524  and  _527
REMARK  194  A    between atoms: _527  and  _528
REMARK  195  A    between atoms: _534  and  _536
REMARK  196  A    between atoms: _536  and  _537
REMARK  197  A    between atoms: _536  and  _539
REMARK  198  A    between atoms: _539  and  _540
REMARK  199  A    between atoms: _545  and  _547
REMARK  200  A    between atoms: _547  and  _548
REMARK  201  A    between atoms: _547  and  _550
REMARK  202  A    between atoms: _550  and  _551
REMARK  203  A    between atoms: _551  and  _552
REMARK  204  A    between atoms: _552  and  _553
REMARK  205  A    between atoms: _553  and  ZN_801
REMARK  206  A    between atoms: _555  and  _557
REMARK  207  A    between atoms: _557  and  _558
REMARK  208  A    between atoms: _561  and  _563
REMARK  209  A    between atoms: _563  and  _564
REMARK  210  A    between atoms: _566  and  _568
REMARK  211  A    between atoms: _568  and  _569
REMARK  212  A    between atoms: _568  and  _571
REMARK  213  A    between atoms: _571  and  _572
REMARK  214  A    between atoms: _575  and  _577
REMARK  215  A    between atoms: _577  and  _578
REMARK  216  A    between atoms: _581  and  _583
REMARK  217  A    between atoms: _583  and  _584
REMARK  218  A    between atoms: _583  and  _586
REMARK  219  A    between atoms: _586  and  _587
REMARK  220  A    between atoms: _587  and  _588
REMARK  221  A    between atoms: _591  and  _593
REMARK  222  A    between atoms: _593  and  _594
REMARK  223  A    between atoms: _593  and  _596
REMARK  224  A    between atoms: _596  and  _597
REMARK  225  A    between atoms: _597  and  _598
REMARK  226  A    between atoms: _598  and  _599
REMARK  227  A    between atoms: _599  and  _600
REMARK  228  A    between atoms: _604  and  _606
REMARK  229  A    between atoms: _606  and  _607
REMARK  230  A    between atoms: _606  and  _609
REMARK  231  A    between atoms: _609  and  _610
REMARK  232  A    between atoms: _616  and  _618
REMARK  233  A    between atoms: _618  and  _619
REMARK  234  A    between atoms: _618  and  _621
REMARK  235  A    between atoms: _621  and  _622
REMARK  236  A    between atoms: _628  and  _630
REMARK  237  A    between atoms: _630  and  _631
REMARK  238  A    between atoms: _633  and  _635
REMARK  239  A    between atoms: _635  and  _636
REMARK  240  A    between atoms: _635  and  _638
REMARK  241  A    between atoms: _641  and  _643
REMARK  242  A    between atoms: _643  and  _644
REMARK  243  A    between atoms: _643  and  _646
REMARK  244  A    between atoms: _646  and  _647
REMARK  245  A    between atoms: _647  and  _648
REMARK  246  A    between atoms: _648  and  _649
REMARK  247  A    between atoms: _649  and  _650
REMARK  248  A    between atoms: _654  and  _656
REMARK  249  A    between atoms: _656  and  _657
REMARK  250  A    between atoms: _656  and  _659
REMARK  251  A    between atoms: _659  and  _660
REMARK  252  A    between atoms: _666  and  _668
REMARK  253  A    between atoms: _668  and  _669
REMARK  254  A    between atoms: _668  and  _671
REMARK  255  A    between atoms: _671  and  _672
REMARK  256  A    between atoms: _677  and  _679
REMARK  257  A    between atoms: _679  and  _680
REMARK  258  A    between atoms: _679  and  _682
REMARK  259  A    between atoms: _682  and  _683
REMARK  260  A    between atoms: _688  and  _690
REMARK  261  A    between atoms: _690  and  _691
REMARK  262  A    between atoms: _690  and  _693
REMARK  263  A    between atoms: _696  and  _698
REMARK  264  A    between atoms: _698  and  _699
REMARK  265  A    between atoms: _698  and  _701
REMARK  266  A    between atoms: _701  and  _702
REMARK  267  A    between atoms: _706  and  _707
REMARK  268  A    between atoms: _712  and  _714
REMARK  269  A    between atoms: _714  and  _715
REMARK  270  A    between atoms: _714  and  _717
REMARK  271  A    between atoms: _717  and  _718
REMARK  272  A    between atoms: _723  and  _724
REMARK  273  A    between atoms: _726  and  _728
REMARK  274  A    between atoms: _728  and  _729
REMARK  275  A    between atoms: _728  and  _731
REMARK  276  A    between atoms: _731  and  _732
REMARK  277  A    between atoms: _732  and  _733
REMARK  278  A    between atoms: _733  and  _734
REMARK  279  A    between atoms: _743  and  _745
REMARK  280  A    between atoms: _745  and  _746
REMARK  281  A    between atoms: _745  and  _748
REMARK  282  A    between atoms: _748  and  _749
REMARK  283  A    between atoms: _754  and  _755
REMARK  284  A    between atoms: _757  and  _759
REMARK  285  A    between atoms: _759  and  _760
REMARK  286  A    between atoms: _759  and  _762
REMARK  287  A    between atoms: _762  and  _763
REMARK  288  A    between atoms: _769  and  _771
REMARK  289  A    between atoms: _771  and  _772
REMARK  290  A    between atoms: _771  and  _774
REMARK  291  A    between atoms: _774  and  _775
REMARK  292  A    between atoms: _777  and  _779
REMARK  293  A    between atoms: _779  and  _780
REMARK  294  A    between atoms: _779  and  _782
REMARK  295  A    between atoms: _782  and  _783
REMARK  296  A    between atoms: _789  and  _791
REMARK  297  A    between atoms: _791  and  _792
REMARK  298  A    between atoms: _791  and  _794
REMARK  299  A    between atoms: _794  and  _795
REMARK  300  A    between atoms: _795  and  _796
REMARK                            x       y       z     vdW  Elec       q    Type
REMARK                         _______ _______ _______ _____ _____    ______ ____
ROOT
ATOM      1  NE  ARG A   1       9.115 -11.329 -31.867  0.00  0.00    -0.265 N 
ATOM      2  CZ  ARG A   1      10.058 -11.549 -30.953  0.00  0.00    +0.342 C 
ATOM      3  NH2 ARG A   1       9.703 -11.888 -29.716  0.00  0.00    -0.292 N 
ATOM      4 HH21 ARG A   1      10.432 -12.062 -28.995  0.00  0.00    +0.255 HD
ATOM      5 HH22 ARG A   1       8.697 -11.979 -29.470  0.00  0.00    +0.255 HD
ATOM      6  NH1 ARG A   1      11.349 -11.431 -31.262  0.00  0.00    -0.292 N 
ATOM      7 HH11 ARG A   1      12.075 -11.606 -30.538  0.00  0.00    +0.255 HD
ATOM      8 HH12 ARG A   1      11.630 -11.164 -32.227  0.00  0.00    +0.255 HD
ATOM      9  HE  ARG A   1       8.123 -11.417 -31.568  0.00  0.00    +0.259 HD
ENDROOT
BRANCH   1  10
ATOM     10  CD  ARG A   1       9.374 -10.973 -33.259  0.00  0.00    +0.174 C 
BRANCH  10  11
ATOM     11  CG  ARG A   1       9.114 -12.153 -34.203  0.00  0.00    +0.045 C 
BRANCH  11  12
ATOM     12  CB  ARG A   1      10.091 -13.299 -33.963  0.00  0.00    +0.029 C 
BRANCH  12  13
ATOM     13  CA  ARG A   1       9.765 -14.576 -34.735  0.00  0.00    +0.133 C 
BRANCH  13  14
ATOM     14  N   ARG A   1       8.507 -15.136 -34.276  0.00  0.00    -0.239 NA
ATOM     15  H   ARG A   1       8.382 -15.314 -33.259  0.00  0.00    +0.142 HD
ENDBRANCH  13  14
BRANCH  13  16
ATOM     16  C   ARG A   1      10.877 -15.602 -34.542  0.00  0.00    +0.224 C 
ATOM     17  O   ARG A   1      10.860 -16.361 -33.585  0.00  0.00    -0.287 OA
ENDBRANCH  13  16
ENDBRANCH  12  13
ENDBRANCH  11  12
ENDBRANCH  10  11
ENDBRANCH   1  10
TORSDOF 6
REMARK  Name = ../refined-set-2016/2xyd/2xyd_pocket.pdb
REMARK  300 active torsions:
REMARK  status: ('A' for Active; 'I' for Inactive)
REMARK    1  A    between atoms: _1  and  _3
REMARK    2  A    between atoms: _3  and  _4
REMARK    3  A    between atoms: _3  and  _6
REMARK    4  A    between atoms: _6  and  _7
REMARK    5  A    between atoms: _10  and  _12
REMARK    6  A    between atoms: _12  and  _13
REMARK    7  A    between atoms: _12  and  _15
REMARK    8  A    between atoms: _15  and  _16
REMARK    9  A    between atoms: _21  and  _22
REMARK   10  A    between atoms: _24  and  _26
REMARK   11  A    between atoms: _26  and  _27
REMARK   12  A    between atoms: _26  and  _29
REMARK   13  A    between atoms: _29  and  _30
REMARK   14  A    between atoms: _35  and  _36
REMARK   15  A    between atoms: _38  and  _40
REMARK   16  A    between atoms: _40  and  _41
REMARK   17  A    between atoms: _40  and  _43
REMARK   18  A    between atoms: _43  and  _44
REMARK   19  A    between atoms: _47  and  _49
REMARK   20  A    between atoms: _49  and  _50
REMARK   21  A    between atoms: _49  and  _52
REMARK   22  A    between atoms: _52  and  _53
REMARK   23  A    between atoms: _63  and  _65
REMARK   24  A    between atoms: _65  and  _66
REMARK   25  A    between atoms: _65  and  _68
REMARK   26  A    between atoms: _68  and  _69
REMARK   27  A    between atoms: _69  and  _70
REMARK   28  A    between atoms: _75  and  _77
REMARK   29  A    between atoms: _77  and  _78
REMARK   30  A    between atoms: _77  and  _80
REMARK   31  A    between atoms: _80  and  _81
REMARK   32  A    between atoms: _83  and  _85
REMARK   33  A    between atoms: _85  and  _86
REMARK   34  A    between atoms: _85  and  _88
REMARK   35  A    between atoms: _88  and  _89
REMARK   36  A    between atoms: _99  and  _101
REMARK   37  A    between atoms: _101  and  _102
REMARK   38  A    between atoms: _101  and  _104
REMARK   39  A    between atoms: _104  and  _105
REMARK   40  A    between atoms: _105  and  _106
REMARK   41  A    between atoms: _109  and  _111
REMARK   42  A    between atoms: _111  and  _112
REMARK   43  A    between atoms: _111  and  _114
REMARK   44  A    between atoms: _114  and  _115
REMARK   45  A    between atoms: _120  and  _122
REMARK   46  A    between atoms: _122  and  _123
REMARK   47  A    between atoms: _122  and  _125
REMARK   48  A    between atoms: _128  and  _130
REMARK   49  A    between atoms: _130  and  _131
REMARK   50  A    between atoms: _130  and  _133
REMARK   51  A    between atoms: _135  and  _137
REMARK   52  A    between atoms: _137  and  _138
REMARK   53  A    between atoms: _137  and  _140
REMARK   54  A    between atoms: _140  and  _141
REMARK   55  A    between atoms: _146  and  _148
REMARK   56  A    between atoms: _148  and  _149
REMARK   57  A    between atoms: _152  and  _154
REMARK   58  A    between atoms: _154  and  _155
REMARK   59  A    between atoms: _154  and  _157
REMARK   60  A    between atoms: _157  and  _158
REMARK   61  A    between atoms: _160  and  _162
REMARK   62  A    between atoms: _162  and  _163
REMARK   63  A    between atoms: _166  and  _168
REMARK   64  A    between atoms: _168  and  _169
REMARK   65  A    between atoms: _168  and  _171
REMARK   66  A    between atoms: _171  and  _172
REMARK   67  A    between atoms: _182  and  _184
REMARK   68  A    between atoms: _184  and  _185
REMARK   69  A    between atoms: _184  and  _187
REMARK   70  A    between atoms: _187  and  _188
REMARK   71  A    between atoms: _191  and  _193
REMARK   72  A    between atoms: _193  and  _194
REMARK   73  A    between atoms: _193  and  _196
REMARK   74  A    between atoms: _196  and  _197
REMARK   75  A    between atoms: _202  and  _203
REMARK   76  A    between atoms: _205  and  _207
REMARK   77  A    between atoms: _207  and  _208
REMARK   78  A    between atoms: _207  and  _210
REMARK   79  A    between atoms: _210  and  _211
REMARK   80  A    between atoms: _211  and  _212
REMARK   81  A    between atoms: _212  and  _213
REMARK   82  A    between atoms: _222  and  _224
REMARK   83  A    between atoms: _224  and  _225
REMARK   84  A    between atoms: _224  and  _227
REMARK   85  A    between atoms: _227  and  _228
REMARK   86  A    between atoms: _231  and  _233
REMARK   87  A    between atoms: _233  and  _234
REMARK   88  A    between atoms: _233  and  _236
REMARK   89  A    between atoms: _236  and  _237
REMARK   90  A    between atoms: _237  and  _238
REMARK   91  A    between atoms: _238  and  _239
REMARK   92  A    between atoms: _239  and  _240
REMARK   93  A    between atoms: _244  and  _246
REMARK   94  A    between atoms: _246  and  _247
REMARK   95  A    between atoms: _246  and  _249
REMARK   96  A    between atoms: _249  and  _250
REMARK   97  A    between atoms: _250  and  _251
REMARK   98  A    between atoms: _256  and  _258
REMARK   99  A    between atoms: _258  and  _259
REMARK  100  A    between atoms: _258  and  _261
REMARK  101  A    between atoms: _261  and  _262
REMARK  102  A    between atoms: _262  and  _263
REMARK  103  A    between atoms: _263  and  _264
REMARK  104  A    between atoms: _273  and  _275
REMARK  105  A    between atoms: _275  and  _276
REMARK  106  A    between atoms: _275  and  _278
REMARK  107  A    between atoms: _278  and  _279
REMARK  108  A    between atoms: _282  and  _284
REMARK  109  A    between atoms: _284  and  _285
REMARK  110  A    between atoms: _284  and  _287
REMARK  111  A    between atoms: _287  and  _288
REMARK  112  A    between atoms: _288  and  _289
REMARK  113  A    between atoms: _291  and  _293
REMARK  114  A    between atoms: _293  and  _294
REMARK  115  A    between atoms: _293  and  _296
REMARK  116  A    between atoms: _296  and  _297
REMARK  117  A    between atoms: _300  and  _302
REMARK  118  A    between atoms: _302  and  _303
REMARK  119  A    between atoms: _302  and  _305
REMARK  120  A    between atoms: _305  and  _306
REMARK  121  A    between atoms: _306  and  _307
REMARK  122  A    between atoms: _312  and  _314
REMARK  123  A    between atoms: _314  and  _315
REMARK  124  A    between atoms: _314  and  _317
REMARK  125  A    between atoms: _317  and  _318
REMARK  126  A    between atoms: _321  and  _323
REMARK  127  A    between atoms: _323  and  _324
REMARK  128  A    between atoms: _323  and  _326
REMARK  129  A    between atoms: _326  and  _327
REMARK  130  A    between atoms: _329  and  _331
REMARK  131  A    between atoms: _331  and  _332
REMARK  132  A    between atoms: _331  and  _334
REMARK  133  A    between atoms: _334  and  _335
REMARK  134  A    between atoms: _338  and  _340
REMARK  135  A    between atoms: _340  and  _341
REMARK  136  A    between atoms: _340  and  _343
REMARK  137  A    between atoms: _346  and  _348
REMARK  138  A    between atoms: _348  and  _349
REMARK  139  A    between atoms: _348  and  _351
REMARK  140  A    between atoms: _351  and  _352
REMARK  141  A    between atoms: _357  and  _359
REMARK  142  A    between atoms: _370  and  _373
REMARK  143  A    between atoms: _373  and  _374
REMARK  144  A    between atoms: _374  and  _375
REMARK  145  A    between atoms: _380  and  _383
REMARK  146  A    between atoms: _383  and  _384
REMARK  147  A    between atoms: _384  and  _385
REMARK  148  A    between atoms: _394  and  _395
REMARK  149  A    between atoms: _403  and  _405
REMARK  150  A    between atoms: _405  and  _406
REMARK  151  A    between atoms: _405  and  _408
REMARK  152  A    between atoms: _408  and  _409
REMARK  153  A    between atoms: _412  and  _414
REMARK  154  A    between atoms: _414  and  _415
REMARK  155  A    between atoms: _414  and  _417
REMARK  156  A    between atoms: _417  and  _418
REMARK  157  A    between atoms: _423  and  _424
REMARK  158  A    between atoms: _426  and  _428
REMARK  159  A    between atoms: _428  and  _429
REMARK  160  A    between atoms: _428  and  _431
REMARK  161  A    between atoms: _431  and  _432
REMARK  162  A    between atoms: _437  and  _438
REMARK  163  A    between atoms: _440  and  _442
REMARK  164  A    between atoms: _442  and  _443
REMARK  165  A    between atoms: _442  and  _445
REMARK  166  A    between atoms: _445  and  _446
REMARK  167  A    between atoms: _451  and  _452
REMARK  168  A    between atoms: _454  and  _456
REMARK  169  A    between atoms: _456  and  _457
REMARK  170  A    between atoms: _456  and  _459
REMARK  171  A    between atoms: _459  and  _460
REMARK  172  A    between atoms: _460  and  _461
REMARK  173  A    between atoms: _461  and  _462
REMARK  174  A    between atoms: _471  and  _473
REMARK  175  A    between atoms: _473  and  _474
REMARK  176  A    between atoms: _473  and  _476
REMARK  177  A    between atoms: _476  and  _477
REMARK  178  A    between atoms: _477  and  _478
REMARK  179  A    between atoms: _478  and  _479
REMARK  180  A    between atoms: _488  and  _490
REMARK  181  A    between atoms: _490  and  _491
REMARK  182  A    between atoms: _493  and  _495
REMARK  183  A    between atoms: _495  and  _496
REMARK  184  A    between atoms: _499  and  _501
REMARK  185  A    between atoms: _501  and  _502
REMARK  186  A    between atoms: _501  and  _504
REMARK  187  A    between atoms: _504  and  _505
REMARK  188  A    between atoms: _511  and  _512
REMARK  189  A    between atoms: _517  and  _519
REMARK  190  A    between atoms: _519  and  _520
REMARK  191  A    between atoms: _522  and  _524
REMARK  192  A    between atoms: _524  and  _525
REMARK  193  A    between atoms: _524  and  _527
REMARK  194  A    between atoms: _527  and  _528
REMARK  195  A    between atoms: _534  and  _536
REMARK  196  A    between atoms: _536  and  _537
REMARK  197  A    between atoms: _536  and  _539
REMARK  198  A    between atoms: _539  and  _540
REMARK  199  A    between atoms: _545  and  _547
REMARK  200  A    between atoms: _547  and  _548
REMARK  201  A    between atoms: _547  and  _550
REMARK  202  A    between atoms: _550  and  _551
REMARK  203  A    between atoms: _551  and  _552
REMARK  204  A    between atoms: _552  and  _553
REMARK  205  A    between atoms: _553  and  ZN_801
REMARK  206  A    between atoms: _555  and  _557
REMARK  207  A    between atoms: _557  and  _558
REMARK  208  A    between atoms: _561  and  _563
REMARK  209  A    between atoms: _563  and  _564
REMARK  210  A    between atoms: _566  and  _568
REMARK  211  A    between atoms: _568  and  _569
REMARK  212  A    between atoms: _568  and  _571
REMARK  213  A    between atoms: _571  and  _572
REMARK  214  A    between atoms: _575  and  _577
REMARK  215  A    between atoms: _577  and  _578
REMARK  216  A    between atoms: _581  and  _583
REMARK  217  A    between atoms: _583  and  _584
REMARK  218  A    between atoms: _583  and  _586
REMARK  219  A    between atoms: _586  and  _587
REMARK  220  A    between atoms: _587  and  _588
REMARK  221  A    between atoms: _591  and  _593
REMARK  222  A    between atoms: _593  and  _594
REMARK  223  A    between atoms: _593  and  _596
REMARK  224  A    between atoms: _596  and  _597
REMARK  225  A    between atoms: _597  and  _598
REMARK  226  A    between atoms: _598  and  _599
REMARK  227  A    between atoms: _599  and  _600
REMARK  228  A    between atoms: _604  and  _606
REMARK  229  A    between atoms: _606  and  _607
REMARK  230  A    between atoms: _606  and  _609
REMARK  231  A    between atoms: _609  and  _610
REMARK  232  A    between atoms: _616  and  _618
REMARK  233  A    between atoms: _618  and  _619
REMARK  234  A    between atoms: _618  and  _621
REMARK  235  A    between atoms: _621  and  _622
REMARK  236  A    between atoms: _628  and  _630
REMARK  237  A    between atoms: _630  and  _631
REMARK  238  A    between atoms: _633  and  _635
REMARK  239  A    between atoms: _635  and  _636
REMARK  240  A    between atoms: _635  and  _638
REMARK  241  A    between atoms: _641  and  _643
REMARK  242  A    between atoms: _643  and  _644
REMARK  243  A    between atoms: _643  and  _646
REMARK  244  A    between atoms: _646  and  _647
REMARK  245  A    between atoms: _647  and  _648
REMARK  246  A    between atoms: _648  and  _649
REMARK  247  A    between atoms: _649  and  _650
REMARK  248  A    between atoms: _654  and  _656
REMARK  249  A    between atoms: _656  and  _657
REMARK  250  A    between atoms: _656  and  _659
REMARK  251  A    between atoms: _659  and  _660
REMARK  252  A    between atoms: _666  and  _668
REMARK  253  A    between atoms: _668  and  _669
REMARK  254  A    between atoms: _668  and  _671
REMARK  255  A    between atoms: _671  and  _672
REMARK  256  A    between atoms: _677  and  _679
REMARK  257  A    between atoms: _679  and  _680
REMARK  258  A    between atoms: _679  and  _682
REMARK  259  A    between atoms: _682  and  _683
REMARK  260  A    between atoms: _688  and  _690
REMARK  261  A    between atoms: _690  and  _691
REMARK  262  A    between atoms: _690  and  _693
REMARK  263  A    between atoms: _696  and  _698
REMARK  264  A    between atoms: _698  and  _699
REMARK  265  A    between atoms: _698  and  _701
REMARK  266  A    between atoms: _701  and  _702
REMARK  267  A    between atoms: _706  and  _707
REMARK  268  A    between atoms: _712  and  _714
REMARK  269  A    between atoms: _714  and  _715
REMARK  270  A    between atoms: _714  and  _717
REMARK  271  A    between atoms: _717  and  _718
REMARK  272  A    between atoms: _723  and  _724
REMARK  273  A    between atoms: _726  and  _728
REMARK  274  A    between atoms: _728  and  _729
REMARK  275  A    between atoms: _728  and  _731
REMARK  276  A    between atoms: _731  and  _732
REMARK  277  A    between atoms: _732  and  _733
REMARK  278  A    between atoms: _733  and  _734
REMARK  279  A    between atoms: _743  and  _745
REMARK  280  A    between atoms: _745  and  _746
REMARK  281  A    between atoms: _745  and  _748
REMARK  282  A    between atoms: _748  and  _749
REMARK  283  A    between atoms: _754  and  _755
REMARK  284  A    between atoms: _757  and  _759
REMARK  285  A    between atoms: _759  and  _760
REMARK  286  A    between atoms: _759  and  _762
REMARK  287  A    between atoms: _762  and  _763
REMARK  288  A    between atoms: _769  and  _771
REMARK  289  A    between atoms: _771  and  _772
REMARK  290  A    between atoms: _771  and  _774
REMARK  291  A    between atoms: _774  and  _775
REMARK  292  A    between atoms: _777  and  _779
REMARK  293  A    between atoms: _779  and  _780
REMARK  294  A    between atoms: _779  and  _782
REMARK  295  A    between atoms: _782  and  _783
REMARK  296  A    between atoms: _789  and  _791
REMARK  297  A    between atoms: _791  and  _792
REMARK  298  A    between atoms: _791  and  _794
REMARK  299  A    between atoms: _794  and  _795
REMARK  300  A    between atoms: _795  and  _796
REMARK                            x       y       z     vdW  Elec       q    Type
REMARK                         _______ _______ _______ _____ _____    ______ ____
ROOT
ATOM      1  C   UNK A  10       5.083 -22.687 -23.731  0.00  0.00    +0.000 C 
ATOM      2  C   UNK A  10       5.355 -21.252 -23.283  0.00  0.00    +0.000 C 
ATOM      3  C   UNK A  10       4.274 -20.684 -22.407  0.00  0.00    +0.000 A 
ATOM      4  N   UNK A  10       4.410 -20.561 -21.042  0.00  0.00    +0.000 NA
ATOM      5  C   UNK A  10       3.306 -20.037 -20.532  0.00  0.00    +0.000 A 
ATOM      6  N   UNK A  10       2.460 -19.809 -21.523  0.00  0.00    +0.000 N 
ATOM      7 ZN   UNK A  10       0.515 -19.253 -21.280  0.00  0.00    +0.000 Zn
ATOM      8  N   UNK A  10      -0.322 -20.944 -21.924  0.00  0.00    +0.000 N 
ATOM      9  C   UNK A  10      -0.876 -21.636 -20.944  0.00  0.00    +0.000 A 
ATOM     10  N   UNK A  10      -1.380 -22.749 -21.447  0.00  0.00    +0.000 NA
ATOM     11  C   UNK A  10      -1.146 -22.783 -22.806  0.00  0.00    +0.000 A 
ATOM     12  C   UNK A  10      -1.640 -23.890 -23.692  0.00  0.00    +0.000 C 
ATOM     13  C   UNK A  10      -1.260 -25.303 -23.246  0.00  0.00    +0.000 C 
ATOM     14  N   UNK A  10       0.198 -25.536 -23.378  0.00  0.00    +0.000 N 
ATOM     15  C   GLY A  13       0.765 -26.706 -23.070  0.00  0.00    +0.000 C 
ATOM     16  O   GLY A  13       0.141 -27.637 -22.548  0.00  0.00    +0.000 OA
ATOM     17  CA  GLY A  13       2.259 -26.845 -23.365  0.00  0.00    +0.000 C 
ATOM     18  N   GLY A  13       2.621 -26.341 -24.695  0.00  0.00    +0.000 N 
ATOM     19  H   GLY A  13       3.344 -25.599 -24.780  0.00  0.00    +0.000 HD
ATOM     20  C   MET A  12       2.039 -26.818 -25.797  0.00  0.00    +0.000 C 
ATOM     21  O   MET A  12       1.266 -27.785 -25.776  0.00  0.00    +0.000 OA
ATOM     22  CA  MET A  12       2.335 -26.072 -27.109  0.00  0.00    +0.000 C 
ATOM     23  N   MET A  12       2.650 -24.652 -26.869  0.00  0.00    +0.000 N 
ATOM     24  C   GLU A  11       1.725 -23.834 -26.371  0.00  0.00    +0.000 C 
ATOM     25  O   GLU A  11       0.592 -24.212 -26.105  0.00  0.00    +0.000 OA
ATOM     26  CA  GLU A  11       2.129 -22.379 -26.136  0.00  0.00    +0.000 C 
ATOM     27  N   GLU A  11       3.442 -22.265 -25.485  0.00  0.00    +0.000 N 
ATOM     28  H   GLU A  11       4.208 -21.747 -25.961  0.00  0.00    +0.000 HD
ATOM     29  H   MET A  12       3.599 -24.288 -27.090  0.00  0.00    +0.000 HD
ATOM     30  H   UNK A  10       0.801 -24.762 -23.722  0.00  0.00    +0.000 HD
ATOM     31  C   UNK A  10      -0.494 -21.631 -23.103  0.00  0.00    +0.000 A 
ATOM     32  C   UNK A  10       3.042 -20.206 -22.706  0.00  0.00    +0.000 A 
ATOM     33  C   UNK A  10       3.663 -22.815 -24.296  0.00  0.00    +0.000 C 
ATOM     34  O   UNK A  10       2.794 -23.407 -23.666  0.00  0.00    +0.000 OA
ENDROOT
BRANCH  13  35
ATOM     35  C   UNK A  10      -2.065 -26.300 -24.101  0.00  0.00    +0.000 C 
ATOM     36  O   UNK A  10      -3.013 -26.928 -23.617  0.00  0.00    +0.000 OA
ATOM     37  N   ILE A  15      -1.690 -26.434 -25.371  0.00  0.00    +0.000 N 
ATOM     38  H   ILE A  15      -0.887 -25.876 -25.725  0.00  0.00    +0.000 HD
BRANCH  37  39
ATOM     39  CA  ILE A  15      -2.382 -27.349 -26.280  0.00  0.00    +0.000 C 
BRANCH  39  40
ATOM     40  CB  ILE A  15      -1.806 -27.304 -27.713  0.00  0.00    +0.000 C 
ATOM     41  CG2 ILE A  15      -2.503 -28.351 -28.604  0.00  0.00    +0.000 C 
BRANCH  40  42
ATOM     42  CG1 ILE A  15      -1.888 -25.886 -28.309  0.00  0.00    +0.000 C 
ATOM     43  CD1 ILE A  15      -3.291 -25.395 -28.712  0.00  0.00    +0.000 C 
ENDBRANCH  40  42
ENDBRANCH  39  40
BRANCH  39  44
ATOM     44  C   ILE A  15      -2.351 -28.789 -25.766  0.00  0.00    +0.000 C 
ATOM     45  O   ILE A  15      -3.374 -29.486 -25.775  0.00  0.00    +0.000 OA
ENDBRANCH  39  44
ENDBRANCH  37  39
ENDBRANCH  13  35
BRANCH   1  47
ATOM     46  C   HIS A   9       6.018 -24.354 -25.225  0.00  0.00    +0.000 C 
ATOM     47  N   UNK A  10       6.059 -23.126 -24.715  0.00  0.00    +0.000 N 
ATOM     48  H   UNK A  10       6.802 -22.468 -25.026  0.00  0.00    +0.000 HD
ATOM     49  O   HIS A   9       5.186 -25.190 -24.893  0.00  0.00    +0.000 OA
BRANCH  46  50
ATOM     50  CA  HIS A   9       7.080 -24.690 -26.269  0.00  0.00    +0.000 C 
BRANCH  50  52
ATOM     51  C   PHE A   8       6.241 -23.146 -27.997  0.00  0.00    +0.000 C 
ATOM     52  N   HIS A   9       7.247 -23.579 -27.229  0.00  0.00    +0.000 N 
ATOM     53  H   HIS A   9       8.176 -23.119 -27.310  0.00  0.00    +0.000 HD
ATOM     54  O   PHE A   8       5.120 -23.673 -27.995  0.00  0.00    +0.000 OA
BRANCH  51  55
ATOM     55  CA  PHE A   8       6.526 -21.931 -28.901  0.00  0.00    +0.000 C 
BRANCH  55  58
ATOM     56  C   GLY A   7       6.584 -20.385 -27.013  0.00  0.00    +0.000 C 
ATOM     57  O   GLY A   7       5.511 -20.793 -26.589  0.00  0.00    +0.000 OA
ATOM     58  N   PHE A   8       7.133 -20.841 -28.137  0.00  0.00    +0.000 N 
ATOM     59  H   PHE A   8       8.016 -20.411 -28.481  0.00  0.00    +0.000 HD
BRANCH  56  60
ATOM     60  CA  GLY A   7       7.366 -19.319 -26.258  0.00  0.00    +0.000 C 
BRANCH  60  63
ATOM     61  C   PRO A   6       9.192 -20.788 -25.517  0.00  0.00    +0.000 C 
ATOM     62  O   PRO A   6       8.435 -21.523 -24.903  0.00  0.00    +0.000 OA
ATOM     63  N   GLY A   7       8.785 -19.683 -26.139  0.00  0.00    +0.000 N 
ATOM     64  H   GLY A   7       9.499 -19.053 -26.557  0.00  0.00    +0.000 HD
BRANCH  61  65
ATOM     65  CA  PRO A   6      10.683 -21.108 -25.574  0.00  0.00    +0.000 C 
BRANCH  65  67
ATOM     66  C   ASN A   5      10.895 -21.462 -27.989  0.00  0.00    +0.000 C 
ATOM     67  N   PRO A   6      11.277 -20.820 -26.886  0.00  0.00    +0.000 N 
ATOM     68  H   PRO A   6      12.018 -20.093 -26.956  0.00  0.00    +0.000 HD
ATOM     69  O   ASN A   5      10.107 -22.402 -27.974  0.00  0.00    +0.000 OA
BRANCH  66  70
ATOM     70  CA  ASN A   5      11.473 -20.962 -29.315  0.00  0.00    +0.000 C 
BRANCH  70  73
ATOM     71  C   ALA A   4      10.281 -18.842 -29.342  0.00  0.00    +0.000 C 
ATOM     72  O   ALA A   4       9.183 -19.406 -29.343  0.00  0.00    +0.000 OA
ATOM     73  N   ASN A   5      11.441 -19.503 -29.368  0.00  0.00    +0.000 N 
ATOM     74  H   ASN A   5      12.333 -18.972 -29.427  0.00  0.00    +0.000 HD
BRANCH  71  75
ATOM     75  CA  ALA A   4      10.361 -17.318 -29.277  0.00  0.00    +0.000 C 
BRANCH  75  78
ATOM     76  C   GLY A   3      11.695 -17.136 -27.261  0.00  0.00    +0.000 C 
ATOM     77  O   GLY A   3      10.810 -17.639 -26.578  0.00  0.00    +0.000 OA
ATOM     78  N   ALA A   4      11.546 -16.879 -28.555  0.00  0.00    +0.000 N 
ATOM     79  H   ALA A   4      12.288 -16.355 -29.061  0.00  0.00    +0.000 HD
BRANCH  76  80
ATOM     80  CA  GLY A   3      13.047 -16.772 -26.653  0.00  0.00    +0.000 C 
BRANCH  80  83
ATOM     81  C   ARG A   2      14.520 -18.204 -27.971  0.00  0.00    +0.000 C 
ATOM     82  O   ARG A   2      14.029 -19.213 -27.474  0.00  0.00    +0.000 OA
ATOM     83  N   GLY A   3      14.134 -16.973 -27.624  0.00  0.00    +0.000 N 
ATOM     84  H   GLY A   3      14.607 -16.148 -28.045  0.00  0.00    +0.000 HD
BRANCH  81  85
ATOM     85  CA  ARG A   2      15.629 -18.333 -29.022  0.00  0.00    +0.000 C 
BRANCH  85  87
ATOM     86  C   ARG A   1      14.513 -17.333 -30.971  0.00  0.00    +0.000 C 
ATOM     87  N   ARG A   2      15.526 -17.341 -30.103  0.00  0.00    +0.000 N 
ATOM     88  H   ARG A   2      16.270 -16.620 -30.194  0.00  0.00    +0.000 HD
ATOM     89  O   ARG A   1      13.622 -18.188 -30.973  0.00  0.00    +0.000 OA
BRANCH  86  90
ATOM     90  CA  ARG A   1      14.500 -16.197 -32.013  0.00  0.00    +0.000 C 
BRANCH  90  91
ATOM     91  N   ARG A   1      13.772 -16.666 -33.170  0.00  0.00    +0.000 NA
ATOM     92  H   ARG A   1      13.063 -17.415 -33.041  0.00  0.00    +0.000 HD
ENDBRANCH  90  91
BRANCH  90  93
ATOM     93  CB  ARG A   1      13.808 -14.920 -31.486  0.00  0.00    +0.000 C 
ATOM     94  CG2 ARG A   1      13.811 -14.878 -30.044  0.00  0.00    +0.000 C 
BRANCH  93  95
ATOM     95  OG1 ARG A   1      14.476 -13.745 -31.997  0.00  0.00    +0.000 OA
ATOM     96  HG1 ARG A   1      14.439 -13.750 -32.986  0.00  0.00    +0.000 HD
ENDBRANCH  93  95
ENDBRANCH  90  93
ENDBRANCH  86  90
ENDBRANCH  85  87
BRANCH  85  97
ATOM     97  CB  ARG A   2      17.017 -18.285 -28.351  0.00  0.00    +0.000 C 
BRANCH  97  98
ATOM     98  CG  ARG A   2      17.238 -19.334 -27.254  0.00  0.00    +0.000 C 
BRANCH  98  99
ATOM     99  SD  ARG A   2      18.894 -19.177 -26.537  0.00  0.00    +0.000 S 
ATOM    100  CE  ARG A   2      19.043 -20.710 -25.629  0.00  0.00    +0.000 C 
ENDBRANCH  98  99
ENDBRANCH  97  98
ENDBRANCH  85  97
ENDBRANCH  81  85
ENDBRANCH  80  83
BRANCH  80 101
ATOM    101  CB  GLY A   3      13.020 -15.335 -26.098  0.00  0.00    +0.000 C 
BRANCH 101 102
ATOM    102  CG  GLY A   3      12.657 -14.305 -27.145  0.00  0.00    +0.000 C 
ATOM    103  OD2 GLY A   3      11.468 -13.914 -27.237  0.00  0.00    +0.000 OA
ATOM    104  OD1 GLY A   3      13.567 -13.881 -27.883  0.00  0.00    +0.000 OA
ENDBRANCH 101 102
ENDBRANCH  80 101
ENDBRANCH  76  80
ENDBRANCH  75  78
BRANCH  75 105
ATOM    105  CB  ALA A   4      10.324 -16.705 -30.667  0.00  0.00    +0.000 C 
BRANCH 105 106
ATOM    106  CG  ALA A   4       9.852 -15.263 -30.658  0.00  0.00    +0.000 C 
BRANCH 106 107
ATOM    107  CD  ALA A   4       8.346 -15.171 -30.587  0.00  0.00    +0.000 C 
ATOM    108  NE2 ALA A   4       7.815 -14.793 -29.419  0.00  0.00    +0.000 N 
ATOM    109 HE21 ALA A   4       8.435 -14.568 -28.615  0.00  0.00    +0.000 HD
ATOM    110 HE22 ALA A   4       6.782 -14.725 -29.315  0.00  0.00    +0.000 HD
ATOM    111  OE1 ALA A   4       7.665 -15.448 -31.566  0.00  0.00    +0.000 OA
ENDBRANCH 106 107
ENDBRANCH 105 106
ENDBRANCH  75 105
ENDBRANCH  71  75
ENDBRANCH  70  73
BRANCH  70 112
ATOM    112  CB  ASN A   5      12.887 -21.506 -29.535  0.00  0.00    +0.000 C 
BRANCH 112 113
ATOM    113  CG  ASN A   5      13.031 -23.038 -29.570  0.00  0.00    +0.000 C 
ATOM    114  CD2 ASN A   5      14.495 -23.444 -29.748  0.00  0.00    +0.000 C 
ATOM    115  CD1 ASN A   5      12.177 -23.654 -30.678  0.00  0.00    +0.000 C 
ENDBRANCH 112 113
ENDBRANCH  70 112
ENDBRANCH  66  70
ENDBRANCH  65  67
BRANCH  65 116
ATOM    116  CB  PRO A   6      11.422 -20.360 -24.458  0.00  0.00    +0.000 C 
BRANCH 116 117
ATOM    117  O   PRO A   6      12.769 -20.804 -24.362  0.00  0.00    +0.000 OA
ATOM    118  H   PRO A   6      13.227 -20.310 -23.637  0.00  0.00    +0.000 HD
ENDBRANCH 116 117
ENDBRANCH  65 116
ENDBRANCH  61  65
ENDBRANCH  60  63
BRANCH  60 119
ATOM    119  CB  GLY A   7       7.205 -17.939 -26.951  0.00  0.00    +0.000 C 
ATOM    120  CG2 GLY A   7       5.734 -17.567 -27.149  0.00  0.00    +0.000 C 
BRANCH 119 121
ATOM    121  OG1 GLY A   7       7.844 -16.931 -26.152  0.00  0.00    +0.000 OA
ATOM    122  HG1 GLY A   7       8.806 -17.146 -26.059  0.00  0.00    +0.000 HD
ENDBRANCH 119 121
ENDBRANCH  60 119
ENDBRANCH  56  60
ENDBRANCH  55  58
BRANCH  55 123
ATOM    123  CB  PHE A   8       7.394 -22.303 -30.146  0.00  0.00    +0.000 C 
ATOM    124  CG2 PHE A   8       6.970 -23.637 -30.757  0.00  0.00    +0.000 C 
ATOM    125  CG1 PHE A   8       7.309 -21.202 -31.203  0.00  0.00    +0.000 C 
ENDBRANCH  55 123
ENDBRANCH  51  55
ENDBRANCH  50  52
BRANCH  50 126
ATOM    126  CB  HIS A   9       8.409 -25.018 -25.554  0.00  0.00    +0.000 C 
BRANCH 126 127
ATOM    127  CG  HIS A   9       9.371 -25.772 -26.406  0.00  0.00    +0.000 A 
ATOM    128  CD2 HIS A   9       9.661 -27.093 -26.469  0.00  0.00    +0.000 A 
ATOM    129  NE2 HIS A   9      10.602 -27.250 -27.454  0.00  0.00    +0.000 NA
ATOM    130  CE1 HIS A   9      10.861 -26.075 -27.996  0.00  0.00    +0.000 A 
ATOM    131  ND1 HIS A   9      10.127 -25.163 -27.383  0.00  0.00    +0.000 NA
ENDBRANCH 126 127
ENDBRANCH  50 126
ENDBRANCH  46  50
ENDBRANCH   1  47
BRANCH  26 132
ATOM    132  CB  GLU A  11       2.096 -21.603 -27.453  0.00  0.00    +0.000 C 
BRANCH 132 133
ATOM    133  CG  GLU A  11       2.319 -20.104 -27.336  0.00  0.00    +0.000 C 
BRANCH 133 134
ATOM    134  CD  GLU A  11       1.475 -19.422 -26.261  0.00  0.00    +0.000 C 
ATOM    135  OE2 GLU A  11       2.039 -18.546 -25.578  0.00  0.00    +0.000 OA
ATOM    136  OE1 GLU A  11       0.268 -19.723 -26.106  0.00  0.00    +0.000 OA
ENDBRANCH 133 134
ENDBRANCH 132 133
ENDBRANCH  26 132
BRANCH  22 137
ATOM    137  CB  MET A  12       3.437 -26.756 -27.922  0.00  0.00    +0.000 C 
BRANCH 137 138
ATOM    138  CG  MET A  12       3.008 -28.091 -28.522  0.00  0.00    +0.000 C 
BRANCH 138 139
ATOM    139  SD  MET A  12       4.181 -28.696 -29.757  0.00  0.00    +0.000 S 
ATOM    140  CE  MET A  12       3.854 -27.543 -31.084  0.00  0.00    +0.000 C 
ENDBRANCH 138 139
ENDBRANCH 137 138
ENDBRANCH  22 137
BRANCH   7 141
ATOM    141  O   UNK A  10       0.465 -19.378 -19.365  0.00  0.00    +0.000 OA
BRANCH 141 142
ATOM    142  C   UNK A  10      -0.389 -19.305 -18.469  0.00  0.00    +0.000 C 
ATOM    143  O   UNK A  10      -1.584 -19.015 -18.716  0.00  0.00    +0.000 OA
BRANCH 142 144
ATOM    144  C   UNK A  10       0.026 -19.578 -17.026  0.00  0.00    +0.000 C 
BRANCH 144 145
ATOM    145  C   UNK A  10       1.254 -20.504 -16.875  0.00  0.00    +0.000 C 
BRANCH 145 146
ATOM    146  C   UNK A  10       1.223 -21.867 -17.607  0.00  0.00    +0.000 C 
BRANCH 146 147
ATOM    147  C   UNK A  10       2.597 -22.560 -17.476  0.00  0.00    +0.000 C 
ATOM    148  N   GLU A  11       2.736 -23.490 -16.531  0.00  0.00    +0.000 N 
ATOM    149  H   GLU A  11       1.904 -23.789 -15.983  0.00  0.00    +0.000 HD
ATOM    150  O   UNK A  10       3.519 -22.244 -18.229  0.00  0.00    +0.000 OA
BRANCH 148 151
ATOM    151  CA  GLU A  11       4.044 -24.100 -16.250  0.00  0.00    +0.000 C 
ATOM    152  CB  GLU A  11       4.126 -24.559 -14.784  0.00  0.00    +0.000 C 
BRANCH 151 153
ATOM    153  C   GLU A  11       4.431 -25.253 -17.185  0.00  0.00    +0.000 C 
ATOM    154  O   GLU A  11       5.615 -25.579 -17.304  0.00  0.00    +0.000 OA
ENDBRANCH 151 153
ENDBRANCH 148 151
ENDBRANCH 146 147
BRANCH 146 155
ATOM    155  N   UNK A  10       0.111 -22.702 -17.149  0.00  0.00    +0.000 N 
ATOM    156  H   UNK A  10      -0.385 -22.455 -16.269  0.00  0.00    +0.000 HD
ATOM    157  C   HIS A   9      -0.278 -23.775 -17.841  0.00  0.00    +0.000 C 
ATOM    158  O   HIS A   9       0.256 -24.126 -18.891  0.00  0.00    +0.000 OA
BRANCH 157 159
ATOM    159  CA  HIS A   9      -1.442 -24.561 -17.273  0.00  0.00    +0.000 C 
BRANCH 159 160
ATOM    160  N   HIS A   9      -1.312 -24.698 -15.829  0.00  0.00    +0.000 N 
ATOM    161  H   HIS A   9      -2.054 -24.299 -15.219  0.00  0.00    +0.000 HD
ATOM    162  C   PHE A   8      -0.273 -25.318 -15.260  0.00  0.00    +0.000 C 
ATOM    163  O   PHE A   8       0.655 -25.815 -15.897  0.00  0.00    +0.000 OA
BRANCH 162 164
ATOM    164  CA  PHE A   8      -0.290 -25.389 -13.737  0.00  0.00    +0.000 C 
BRANCH 164 165
ATOM    165  N   PHE A   8      -0.630 -24.079 -13.143  0.00  0.00    +0.000 N 
ATOM    166  H   PHE A   8      -1.434 -24.020 -12.485  0.00  0.00    +0.000 HD
ATOM    167  C   GLY A   7       0.056 -22.973 -13.420  0.00  0.00    +0.000 C 
ATOM    168  O   GLY A   7       1.093 -22.988 -14.057  0.00  0.00    +0.000 OA
BRANCH 167 169
ATOM    169  CA  GLY A   7      -0.485 -21.650 -12.890  0.00  0.00    +0.000 C 
BRANCH 169 170
ATOM    170  N   GLY A   7      -1.943 -21.507 -12.927  0.00  0.00    +0.000 N 
ATOM    171  H   GLY A   7      -2.444 -21.313 -12.037  0.00  0.00    +0.000 HD
ATOM    172  C   PRO A   6      -2.656 -21.614 -14.046  0.00  0.00    +0.000 C 
ATOM    173  O   PRO A   6      -2.158 -21.726 -15.162  0.00  0.00    +0.000 OA
BRANCH 172 174
ATOM    174  CA  PRO A   6      -4.178 -21.598 -13.900  0.00  0.00    +0.000 C 
ATOM    175  N   PRO A   6      -4.669 -22.242 -12.676  0.00  0.00    +0.000 N 
ATOM    176  CD  PRO A   6      -5.633 -21.382 -11.960  0.00  0.00    +0.000 C 
ATOM    177  CG  PRO A   6      -5.989 -20.331 -12.993  0.00  0.00    +0.000 C 
ATOM    178  C   ASN A   5      -4.329 -23.523 -12.433  0.00  0.00    +0.000 C 
ATOM    179  O   ASN A   5      -3.560 -24.160 -13.168  0.00  0.00    +0.000 OA
ATOM    180  CB  PRO A   6      -4.714 -20.164 -13.782  0.00  0.00    +0.000 C 
BRANCH 178 181
ATOM    181  CA  ASN A   5      -4.966 -24.232 -11.230  0.00  0.00    +0.000 C 
BRANCH 181 182
ATOM    182  N   ASN A   5      -4.711 -25.659 -11.396  0.00  0.00    +0.000 N 
ATOM    183  C   ALA A   4      -5.541 -26.600 -10.961  0.00  0.00    +0.000 C 
ATOM    184  O   ALA A   4      -6.318 -26.432 -10.024  0.00  0.00    +0.000 OA
ATOM    185  H   ASN A   5      -3.838 -25.953 -11.878  0.00  0.00    +0.000 HD
BRANCH 183 186
ATOM    186  CA  ALA A   4      -5.433 -27.954 -11.678  0.00  0.00    +0.000 C 
ATOM    187  CB  ALA A   4      -4.323 -28.808 -11.082  0.00  0.00    +0.000 C 
BRANCH 186 188
ATOM    188  N   ALA A   4      -5.185 -27.715 -13.102  0.00  0.00    +0.000 N 
ATOM    189  H   ALA A   4      -4.363 -28.162 -13.555  0.00  0.00    +0.000 HD
ATOM    190  C   GLY A   3      -5.987 -26.938 -13.833  0.00  0.00    +0.000 C 
ATOM    191  O   GLY A   3      -7.052 -26.500 -13.415  0.00  0.00    +0.000 OA
BRANCH 190 192
ATOM    192  CA  GLY A   3      -5.532 -26.600 -15.243  0.00  0.00    +0.000 C 
BRANCH 192 193
ATOM    193  N   GLY A   3      -6.684 -26.151 -16.017  0.00  0.00    +0.000 N 
ATOM    194  H   GLY A   3      -6.744 -25.157 -16.317  0.00  0.00    +0.000 HD
ATOM    195  C   ARG A   2      -7.659 -26.995 -16.344  0.00  0.00    +0.000 C 
ATOM    196  O   ARG A   2      -7.596 -28.202 -16.128  0.00  0.00    +0.000 OA
BRANCH 195 197
ATOM    197  CA  ARG A   2      -8.896 -26.405 -17.007  0.00  0.00    +0.000 C 
BRANCH 197 198
ATOM    198  N   ARG A   2      -9.724 -27.527 -17.438  0.00  0.00    +0.000 N 
ATOM    199  H   ARG A   2      -9.713 -28.398 -16.870  0.00  0.00    +0.000 HD
ATOM    200  C   ARG A   1     -10.490 -27.486 -18.521  0.00  0.00    +0.000 C 
ATOM    201  O   ARG A   1     -10.612 -26.483 -19.230  0.00  0.00    +0.000 OA
BRANCH 200 202
ATOM    202  CA  ARG A   1     -11.228 -28.776 -18.840  0.00  0.00    +0.000 C 
BRANCH 202 203
ATOM    203  N   ARG A   1     -12.253 -29.072 -17.837  0.00  0.00    +0.000 NA
ATOM    204  H   ARG A   1     -13.219 -28.712 -17.975  0.00  0.00    +0.000 HD
ENDBRANCH 202 203
BRANCH 202 205
ATOM    205  CB  ARG A   1     -11.813 -28.743 -20.252  0.00  0.00    +0.000 C 
BRANCH 205 206
ATOM    206  CG  ARG A   1     -12.156 -30.108 -20.792  0.00  0.00    +0.000 C 
BRANCH 206 207
ATOM    207  CD  ARG A   1     -12.682 -30.032 -22.218  0.00  0.00    +0.000 C 
BRANCH 207 208
ATOM    208  NE  ARG A   1     -13.705 -31.044 -22.410  0.00  0.00    +0.330 N 
ATOM    209  HE  ARG A   1     -13.716 -31.842 -21.743  0.00  0.00    +0.000 HD
ATOM    210  CZ  ARG A   1     -14.631 -31.038 -23.367  0.00  0.00    +0.000 C 
ATOM    211  NH2 ARG A   1     -15.522 -32.015 -23.408  0.00  0.00    +0.330 N 
ATOM    212 HH21 ARG A   1     -15.494 -32.775 -22.698  0.00  0.00    +0.000 HD
ATOM    213 HH22 ARG A   1     -16.251 -32.023 -24.150  0.00  0.00    +0.000 HD
ATOM    214  NH1 ARG A   1     -14.690 -30.069 -24.265  0.00  0.00    +0.330 N 
ATOM    215 HH11 ARG A   1     -14.003 -29.289 -24.234  0.00  0.00    +0.000 HD
ATOM    216 HH12 ARG A   1     -15.423 -30.087 -25.003  0.00  0.00    +0.000 HD
ENDBRANCH 207 208
ENDBRANCH 206 207
ENDBRANCH 205 206
ENDBRANCH 202 205
ENDBRANCH 200 202
ENDBRANCH 197 198
BRANCH 197 217
ATOM    217  CB  ARG A   2      -9.638 -25.537 -15.985  0.00  0.00    +0.000 C 
BRANCH 217 218
ATOM    218  CG  ARG A   2     -11.032 -25.088 -16.387  0.00  0.00    +0.000 C 
BRANCH 218 219
ATOM    219  CD  ARG A   2     -11.837 -24.693 -15.144  0.00  0.00    +0.000 C 
BRANCH 219 220
ATOM    220  NE  ARG A   2     -13.259 -24.529 -15.442  0.00  0.00    +0.330 N 
ATOM    221  HE  ARG A   2     -13.885 -25.344 -15.286  0.00  0.00    +0.000 HD
ATOM    222  CZ  ARG A   2     -13.805 -23.403 -15.901  0.00  0.00    +0.000 C 
ATOM    223  NH2 ARG A   2     -13.047 -22.327 -16.121  0.00  0.00    +0.330 N 
ATOM    224 HH21 ARG A   2     -12.025 -22.364 -15.934  0.00  0.00    +0.000 HD
ATOM    225 HH22 ARG A   2     -13.479 -21.451 -16.479  0.00  0.00    +0.000 HD
ATOM    226  NH1 ARG A   2     -15.114 -23.354 -16.148  0.00  0.00    +0.330 N 
ATOM    227 HH11 ARG A   2     -15.706 -24.193 -15.983  0.00  0.00    +0.000 HD
ATOM    228 HH12 ARG A   2     -15.543 -22.477 -16.506  0.00  0.00    +0.000 HD
ENDBRANCH 219 220
ENDBRANCH 218 219
ENDBRANCH 217 218
ENDBRANCH 197 217
ENDBRANCH 195 197
ENDBRANCH 192 193
ENDBRANCH 190 192
ENDBRANCH 186 188
ENDBRANCH 183 186
ENDBRANCH 181 182
BRANCH 181 229
ATOM    229  CB  ASN A   5      -4.525 -23.700  -9.850  0.00  0.00    +0.000 C 
BRANCH 229 230
ATOM    230  CG  ASN A   5      -3.023 -23.553  -9.701  0.00  0.00    +0.000 C 
ATOM    231  ND2 ASN A   5      -2.519 -23.950  -8.546  0.00  0.00    +0.000 N 
ATOM    232 HD21 ASN A   5      -3.136 -24.387  -7.832  0.00  0.00    +0.000 HD
ATOM    233 HD22 ASN A   5      -1.505 -23.826  -8.351  0.00  0.00    +0.000 HD
ATOM    234  OD1 ASN A   5      -2.333 -23.030 -10.580  0.00  0.00    +0.000 OA
ENDBRANCH 229 230
ENDBRANCH 181 229
ENDBRANCH 178 181
ENDBRANCH 172 174
ENDBRANCH 169 170
ENDBRANCH 167 169
ENDBRANCH 164 165
BRANCH 164 235
ATOM    235  CB  PHE A   8      -1.316 -26.448 -13.349  0.00  0.00    +0.000 C 
BRANCH 235 236
ATOM    236  CG  PHE A   8      -1.034 -27.158 -12.054  0.00  0.00    +0.000 A 
ATOM    237  CD2 PHE A   8      -1.124 -26.488 -10.831  0.00  0.00    +0.000 A 
ATOM    238  CE2 PHE A   8      -0.900 -27.155  -9.628  0.00  0.00    +0.000 A 
ATOM    239  CZ  PHE A   8      -0.595 -28.503  -9.636  0.00  0.00    +0.000 A 
ATOM    240  CE1 PHE A   8      -0.517 -29.191 -10.853  0.00  0.00    +0.000 A 
ATOM    241  CD1 PHE A   8      -0.747 -28.513 -12.052  0.00  0.00    +0.000 A 
ENDBRANCH 235 236
ENDBRANCH 164 235
ENDBRANCH 162 164
ENDBRANCH 159 160
BRANCH 159 242
ATOM    242  CB  HIS A   9      -2.765 -23.873 -17.639  0.00  0.00    +0.000 C 
BRANCH 242 243
ATOM    243  CG  HIS A   9      -3.547 -24.594 -18.691  0.00  0.00    +0.000 A 
ATOM    244  CD2 HIS A   9      -4.717 -25.270 -18.621  0.00  0.00    +0.000 A 
ATOM    245  NE2 HIS A   9      -4.992 -25.738 -19.885  0.00  0.00    +0.000 NA
ATOM    246  CE1 HIS A   9      -4.029 -25.354 -20.704  0.00  0.00    +0.000 A 
ATOM    247  ND1 HIS A   9      -3.138 -24.669 -20.008  0.00  0.00    +0.000 NA
ENDBRANCH 242 243
ENDBRANCH 159 242
ENDBRANCH 157 159
ENDBRANCH 146 155
ENDBRANCH 145 146
ENDBRANCH 144 145
ENDBRANCH 142 144
ENDBRANCH 141 142
ENDBRANCH   7 141
TORSDOF 89
REMARK  Name = ../refined-set-2016/2xyd/2xyd_pocket.pdb
REMARK  300 active torsions:
REMARK  status: ('A' for Active; 'I' for Inactive)
REMARK    1  A    between atoms: _1  and  _3
REMARK    2  A    between atoms: _3  and  _4
REMARK    3  A    between atoms: _3  and  _6
REMARK    4  A    between atoms: _6  and  _7
REMARK    5  A    between atoms: _10  and  _12
REMARK    6  A    between atoms: _12  and  _13
REMARK    7  A    between atoms: _12  and  _15
REMARK    8  A    between atoms: _15  and  _16
REMARK    9  A    between atoms: _21  and  _22
REMARK   10  A    between atoms: _24  and  _26
REMARK   11  A    between atoms: _26  and  _27
REMARK   12  A    between atoms: _26  and  _29
REMARK   13  A    between atoms: _29  and  _30
REMARK   14  A    between atoms: _35  and  _36
REMARK   15  A    between atoms: _38  and  _40
REMARK   16  A    between atoms: _40  and  _41
REMARK   17  A    between atoms: _40  and  _43
REMARK   18  A    between atoms: _43  and  _44
REMARK   19  A    between atoms: _47  and  _49
REMARK   20  A    between atoms: _49  and  _50
REMARK   21  A    between atoms: _49  and  _52
REMARK   22  A    between atoms: _52  and  _53
REMARK   23  A    between atoms: _63  and  _65
REMARK   24  A    between atoms: _65  and  _66
REMARK   25  A    between atoms: _65  and  _68
REMARK   26  A    between atoms: _68  and  _69
REMARK   27  A    between atoms: _69  and  _70
REMARK   28  A    between atoms: _75  and  _77
REMARK   29  A    between atoms: _77  and  _78
REMARK   30  A    between atoms: _77  and  _80
REMARK   31  A    between atoms: _80  and  _81
REMARK   32  A    between atoms: _83  and  _85
REMARK   33  A    between atoms: _85  and  _86
REMARK   34  A    between atoms: _85  and  _88
REMARK   35  A    between atoms: _88  and  _89
REMARK   36  A    between atoms: _99  and  _101
REMARK   37  A    between atoms: _101  and  _102
REMARK   38  A    between atoms: _101  and  _104
REMARK   39  A    between atoms: _104  and  _105
REMARK   40  A    between atoms: _105  and  _106
REMARK   41  A    between atoms: _109  and  _111
REMARK   42  A    between atoms: _111  and  _112
REMARK   43  A    between atoms: _111  and  _114
REMARK   44  A    between atoms: _114  and  _115
REMARK   45  A    between atoms: _120  and  _122
REMARK   46  A    between atoms: _122  and  _123
REMARK   47  A    between atoms: _122  and  _125
REMARK   48  A    between atoms: _128  and  _130
REMARK   49  A    between atoms: _130  and  _131
REMARK   50  A    between atoms: _130  and  _133
REMARK   51  A    between atoms: _135  and  _137
REMARK   52  A    between atoms: _137  and  _138
REMARK   53  A    between atoms: _137  and  _140
REMARK   54  A    between atoms: _140  and  _141
REMARK   55  A    between atoms: _146  and  _148
REMARK   56  A    between atoms: _148  and  _149
REMARK   57  A    between atoms: _152  and  _154
REMARK   58  A    between atoms: _154  and  _155
REMARK   59  A    between atoms: _154  and  _157
REMARK   60  A    between atoms: _157  and  _158
REMARK   61  A    between atoms: _160  and  _162
REMARK   62  A    between atoms: _162  and  _163
REMARK   63  A    between atoms: _166  and  _168
REMARK   64  A    between atoms: _168  and  _169
REMARK   65  A    between atoms: _168  and  _171
REMARK   66  A    between atoms: _171  and  _172
REMARK   67  A    between atoms: _182  and  _184
REMARK   68  A    between atoms: _184  and  _185
REMARK   69  A    between atoms: _184  and  _187
REMARK   70  A    between atoms: _187  and  _188
REMARK   71  A    between atoms: _191  and  _193
REMARK   72  A    between atoms: _193  and  _194
REMARK   73  A    between atoms: _193  and  _196
REMARK   74  A    between atoms: _196  and  _197
REMARK   75  A    between atoms: _202  and  _203
REMARK   76  A    between atoms: _205  and  _207
REMARK   77  A    between atoms: _207  and  _208
REMARK   78  A    between atoms: _207  and  _210
REMARK   79  A    between atoms: _210  and  _211
REMARK   80  A    between atoms: _211  and  _212
REMARK   81  A    between atoms: _212  and  _213
REMARK   82  A    between atoms: _222  and  _224
REMARK   83  A    between atoms: _224  and  _225
REMARK   84  A    between atoms: _224  and  _227
REMARK   85  A    between atoms: _227  and  _228
REMARK   86  A    between atoms: _231  and  _233
REMARK   87  A    between atoms: _233  and  _234
REMARK   88  A    between atoms: _233  and  _236
REMARK   89  A    between atoms: _236  and  _237
REMARK   90  A    between atoms: _237  and  _238
REMARK   91  A    between atoms: _238  and  _239
REMARK   92  A    between atoms: _239  and  _240
REMARK   93  A    between atoms: _244  and  _246
REMARK   94  A    between atoms: _246  and  _247
REMARK   95  A    between atoms: _246  and  _249
REMARK   96  A    between atoms: _249  and  _250
REMARK   97  A    between atoms: _250  and  _251
REMARK   98  A    between atoms: _256  and  _258
REMARK   99  A    between atoms: _258  and  _259
REMARK  100  A    between atoms: _258  and  _261
REMARK  101  A    between atoms: _261  and  _262
REMARK  102  A    between atoms: _262  and  _263
REMARK  103  A    between atoms: _263  and  _264
REMARK  104  A    between atoms: _273  and  _275
REMARK  105  A    between atoms: _275  and  _276
REMARK  106  A    between atoms: _275  and  _278
REMARK  107  A    between atoms: _278  and  _279
REMARK  108  A    between atoms: _282  and  _284
REMARK  109  A    between atoms: _284  and  _285
REMARK  110  A    between atoms: _284  and  _287
REMARK  111  A    between atoms: _287  and  _288
REMARK  112  A    between atoms: _288  and  _289
REMARK  113  A    between atoms: _291  and  _293
REMARK  114  A    between atoms: _293  and  _294
REMARK  115  A    between atoms: _293  and  _296
REMARK  116  A    between atoms: _296  and  _297
REMARK  117  A    between atoms: _300  and  _302
REMARK  118  A    between atoms: _302  and  _303
REMARK  119  A    between atoms: _302  and  _305
REMARK  120  A    between atoms: _305  and  _306
REMARK  121  A    between atoms: _306  and  _307
REMARK  122  A    between atoms: _312  and  _314
REMARK  123  A    between atoms: _314  and  _315
REMARK  124  A    between atoms: _314  and  _317
REMARK  125  A    between atoms: _317  and  _318
REMARK  126  A    between atoms: _321  and  _323
REMARK  127  A    between atoms: _323  and  _324
REMARK  128  A    between atoms: _323  and  _326
REMARK  129  A    between atoms: _326  and  _327
REMARK  130  A    between atoms: _329  and  _331
REMARK  131  A    between atoms: _331  and  _332
REMARK  132  A    between atoms: _331  and  _334
REMARK  133  A    between atoms: _334  and  _335
REMARK  134  A    between atoms: _338  and  _340
REMARK  135  A    between atoms: _340  and  _341
REMARK  136  A    between atoms: _340  and  _343
REMARK  137  A    between atoms: _346  and  _348
REMARK  138  A    between atoms: _348  and  _349
REMARK  139  A    between atoms: _348  and  _351
REMARK  140  A    between atoms: _351  and  _352
REMARK  141  A    between atoms: _357  and  _359
REMARK  142  A    between atoms: _370  and  _373
REMARK  143  A    between atoms: _373  and  _374
REMARK  144  A    between atoms: _374  and  _375
REMARK  145  A    between atoms: _380  and  _383
REMARK  146  A    between atoms: _383  and  _384
REMARK  147  A    between atoms: _384  and  _385
REMARK  148  A    between atoms: _394  and  _395
REMARK  149  A    between atoms: _403  and  _405
REMARK  150  A    between atoms: _405  and  _406
REMARK  151  A    between atoms: _405  and  _408
REMARK  152  A    between atoms: _408  and  _409
REMARK  153  A    between atoms: _412  and  _414
REMARK  154  A    between atoms: _414  and  _415
REMARK  155  A    between atoms: _414  and  _417
REMARK  156  A    between atoms: _417  and  _418
REMARK  157  A    between atoms: _423  and  _424
REMARK  158  A    between atoms: _426  and  _428
REMARK  159  A    between atoms: _428  and  _429
REMARK  160  A    between atoms: _428  and  _431
REMARK  161  A    between atoms: _431  and  _432
REMARK  162  A    between atoms: _437  and  _438
REMARK  163  A    between atoms: _440  and  _442
REMARK  164  A    between atoms: _442  and  _443
REMARK  165  A    between atoms: _442  and  _445
REMARK  166  A    between atoms: _445  and  _446
REMARK  167  A    between atoms: _451  and  _452
REMARK  168  A    between atoms: _454  and  _456
REMARK  169  A    between atoms: _456  and  _457
REMARK  170  A    between atoms: _456  and  _459
REMARK  171  A    between atoms: _459  and  _460
REMARK  172  A    between atoms: _460  and  _461
REMARK  173  A    between atoms: _461  and  _462
REMARK  174  A    between atoms: _471  and  _473
REMARK  175  A    between atoms: _473  and  _474
REMARK  176  A    between atoms: _473  and  _476
REMARK  177  A    between atoms: _476  and  _477
REMARK  178  A    between atoms: _477  and  _478
REMARK  179  A    between atoms: _478  and  _479
REMARK  180  A    between atoms: _488  and  _490
REMARK  181  A    between atoms: _490  and  _491
REMARK  182  A    between atoms: _493  and  _495
REMARK  183  A    between atoms: _495  and  _496
REMARK  184  A    between atoms: _499  and  _501
REMARK  185  A    between atoms: _501  and  _502
REMARK  186  A    between atoms: _501  and  _504
REMARK  187  A    between atoms: _504  and  _505
REMARK  188  A    between atoms: _511  and  _512
REMARK  189  A    between atoms: _517  and  _519
REMARK  190  A    between atoms: _519  and  _520
REMARK  191  A    between atoms: _522  and  _524
REMARK  192  A    between atoms: _524  and  _525
REMARK  193  A    between atoms: _524  and  _527
REMARK  194  A    between atoms: _527  and  _528
REMARK  195  A    between atoms: _534  and  _536
REMARK  196  A    between atoms: _536  and  _537
REMARK  197  A    between atoms: _536  and  _539
REMARK  198  A    between atoms: _539  and  _540
REMARK  199  A    between atoms: _545  and  _547
REMARK  200  A    between atoms: _547  and  _548
REMARK  201  A    between atoms: _547  and  _550
REMARK  202  A    between atoms: _550  and  _551
REMARK  203  A    between atoms: _551  and  _552
REMARK  204  A    between atoms: _552  and  _553
REMARK  205  A    between atoms: _553  and  ZN_801
REMARK  206  A    between atoms: _555  and  _557
REMARK  207  A    between atoms: _557  and  _558
REMARK  208  A    between atoms: _561  and  _563
REMARK  209  A    between atoms: _563  and  _564
REMARK  210  A    between atoms: _566  and  _568
REMARK  211  A    between atoms: _568  and  _569
REMARK  212  A    between atoms: _568  and  _571
REMARK  213  A    between atoms: _571  and  _572
REMARK  214  A    between atoms: _575  and  _577
REMARK  215  A    between atoms: _577  and  _578
REMARK  216  A    between atoms: _581  and  _583
REMARK  217  A    between atoms: _583  and  _584
REMARK  218  A    between atoms: _583  and  _586
REMARK  219  A    between atoms: _586  and  _587
REMARK  220  A    between atoms: _587  and  _588
REMARK  221  A    between atoms: _591  and  _593
REMARK  222  A    between atoms: _593  and  _594
REMARK  223  A    between atoms: _593  and  _596
REMARK  224  A    between atoms: _596  and  _597
REMARK  225  A    between atoms: _597  and  _598
REMARK  226  A    between atoms: _598  and  _599
REMARK  227  A    between atoms: _599  and  _600
REMARK  228  A    between atoms: _604  and  _606
REMARK  229  A    between atoms: _606  and  _607
REMARK  230  A    between atoms: _606  and  _609
REMARK  231  A    between atoms: _609  and  _610
REMARK  232  A    between atoms: _616  and  _618
REMARK  233  A    between atoms: _618  and  _619
REMARK  234  A    between atoms: _618  and  _621
REMARK  235  A    between atoms: _621  and  _622
REMARK  236  A    between atoms: _628  and  _630
REMARK  237  A    between atoms: _630  and  _631
REMARK  238  A    between atoms: _633  and  _635
REMARK  239  A    between atoms: _635  and  _636
REMARK  240  A    between atoms: _635  and  _638
REMARK  241  A    between atoms: _641  and  _643
REMARK  242  A    between atoms: _643  and  _644
REMARK  243  A    between atoms: _643  and  _646
REMARK  244  A    between atoms: _646  and  _647
REMARK  245  A    between atoms: _647  and  _648
REMARK  246  A    between atoms: _648  and  _649
REMARK  247  A    between atoms: _649  and  _650
REMARK  248  A    between atoms: _654  and  _656
REMARK  249  A    between atoms: _656  and  _657
REMARK  250  A    between atoms: _656  and  _659
REMARK  251  A    between atoms: _659  and  _660
REMARK  252  A    between atoms: _666  and  _668
REMARK  253  A    between atoms: _668  and  _669
REMARK  254  A    between atoms: _668  and  _671
REMARK  255  A    between atoms: _671  and  _672
REMARK  256  A    between atoms: _677  and  _679
REMARK  257  A    between atoms: _679  and  _680
REMARK  258  A    between atoms: _679  and  _682
REMARK  259  A    between atoms: _682  and  _683
REMARK  260  A    between atoms: _688  and  _690
REMARK  261  A    between atoms: _690  and  _691
REMARK  262  A    between atoms: _690  and  _693
REMARK  263  A    between atoms: _696  and  _698
REMARK  264  A    between atoms: _698  and  _699
REMARK  265  A    between atoms: _698  and  _701
REMARK  266  A    between atoms: _701  and  _702
REMARK  267  A    between atoms: _706  and  _707
REMARK  268  A    between atoms: _712  and  _714
REMARK  269  A    between atoms: _714  and  _715
REMARK  270  A    between atoms: _714  and  _717
REMARK  271  A    between atoms: _717  and  _718
REMARK  272  A    between atoms: _723  and  _724
REMARK  273  A    between atoms: _726  and  _728
REMARK  274  A    between atoms: _728  and  _729
REMARK  275  A    between atoms: _728  and  _731
REMARK  276  A    between atoms: _731  and  _732
REMARK  277  A    between atoms: _732  and  _733
REMARK  278  A    between atoms: _733  and  _734
REMARK  279  A    between atoms: _743  and  _745
REMARK  280  A    between atoms: _745  and  _746
REMARK  281  A    between atoms: _745  and  _748
REMARK  282  A    between atoms: _748  and  _749
REMARK  283  A    between atoms: _754  and  _755
REMARK  284  A    between atoms: _757  and  _759
REMARK  285  A    between atoms: _759  and  _760
REMARK  286  A    between atoms: _759  and  _762
REMARK  287  A    between atoms: _762  and  _763
REMARK  288  A    between atoms: _769  and  _771
REMARK  289  A    between atoms: _771  and  _772
REMARK  290  A    between atoms: _771  and  _774
REMARK  291  A    between atoms: _774  and  _775
REMARK  292  A    between atoms: _777  and  _779
REMARK  293  A    between atoms: _779  and  _780
REMARK  294  A    between atoms: _779  and  _782
REMARK  295  A    between atoms: _782  and  _783
REMARK  296  A    between atoms: _789  and  _791
REMARK  297  A    between atoms: _791  and  _792
REMARK  298  A    between atoms: _791  and  _794
REMARK  299  A    between atoms: _794  and  _795
REMARK  300  A    between atoms: _795  and  _796
REMARK                            x       y       z     vdW  Elec       q    Type
REMARK                         _______ _______ _______ _____ _____    ______ ____
ROOT
ATOM      1  C   TYR A   1      -4.457 -30.193 -22.297  0.00  0.00    +0.239 C 
ATOM      2  O   TYR A   1      -5.183 -31.115 -21.906  0.00  0.00    -0.274 OA
ATOM      3  N   TYR A   2      -4.820 -29.364 -23.274  0.00  0.00    -0.298 N 
ATOM      4  H   TYR A   2      -4.171 -28.609 -23.573  0.00  0.00    +0.150 HD
ENDROOT
BRANCH   1   5
ATOM      5  CA  TYR A   1      -3.056 -29.985 -21.678  0.00  0.00    +0.149 C 
BRANCH   5   6
ATOM      6  N   TYR A   1      -2.075 -29.911 -22.741  0.00  0.00    -0.238 NA
ATOM      7  H   TYR A   1      -1.438 -29.090 -22.785  0.00  0.00    +0.142 HD
ENDBRANCH   5   6
BRANCH   5   8
ATOM      8  CB  TYR A   1      -3.016 -28.698 -20.854  0.00  0.00    +0.053 C 
BRANCH   8   9
ATOM      9  CG  TYR A   1      -3.047 -28.847 -19.343  0.00  0.00    -0.020 A 
ATOM     10  CD2 TYR A   1      -2.340 -27.963 -18.555  0.00  0.00    -0.001 A 
ATOM     11  CE2 TYR A   1      -2.347 -28.051 -17.172  0.00  0.00    +0.036 A 
ATOM     12  CZ  TYR A   1      -3.062 -29.030 -16.550  0.00  0.00    +0.134 A 
ATOM     13  CE1 TYR A   1      -3.797 -29.939 -17.299  0.00  0.00    +0.036 A 
ATOM     14  CD1 TYR A   1      -3.789 -29.838 -18.703  0.00  0.00    -0.001 A 
BRANCH  12  15
ATOM     15  OH  TYR A   1      -3.024 -29.051 -15.180  0.00  0.00    -0.506 OA
ATOM     16  HH  TYR A   1      -3.578 -29.801 -14.847  0.00  0.00    +0.292 HD
ENDBRANCH  12  15
ENDBRANCH   8   9
ENDBRANCH   5   8
ENDBRANCH   1   5
BRANCH   3  17
ATOM     17  CA  TYR A   2      -6.134 -29.502 -23.941  0.00  0.00    +0.141 C 
BRANCH  17  18
ATOM     18  C   TYR A   2      -6.344 -30.909 -24.509  0.00  0.00    +0.227 C 
ATOM     19  O   TYR A   2      -7.416 -31.477 -24.356  0.00  0.00    -0.286 OA
ENDBRANCH  17  18
BRANCH  17  20
ATOM     20  CB  TYR A   2      -6.318 -28.513 -25.089  0.00  0.00    +0.054 C 
BRANCH  20  21
ATOM     21  CG  TYR A   2      -6.207 -27.035 -24.792  0.00  0.00    -0.020 A 
ATOM     22  CD2 TYR A   2      -6.525 -26.513 -23.542  0.00  0.00    -0.001 A 
ATOM     23  CE2 TYR A   2      -6.433 -25.153 -23.298  0.00  0.00    +0.036 A 
ATOM     24  CZ  TYR A   2      -6.027 -24.292 -24.309  0.00  0.00    +0.134 A 
ATOM     25  CE1 TYR A   2      -5.708 -24.784 -25.567  0.00  0.00    +0.036 A 
ATOM     26  CD1 TYR A   2      -5.796 -26.148 -25.796  0.00  0.00    -0.001 A 
BRANCH  24  27
ATOM     27  OH  TYR A   2      -5.922 -22.938 -24.061  0.00  0.00    -0.506 OA
ATOM     28  HH  TYR A   2      -6.521 -22.444 -24.675  0.00  0.00    +0.292 HD
ENDBRANCH  24  27
ENDBRANCH  20  21
ENDBRANCH  17  20
ENDBRANCH   3  17
TORSDOF 10
REMARK  Name = ../refined-set-2016/2xyd/2xyd_pocket.pdb
REMARK  300 active torsions:
REMARK  status: ('A' for Active; 'I' for Inactive)
REMARK    1  A    between atoms: _1  and  _3
REMARK    2  A    between atoms: _3  and  _4
REMARK    3  A    between atoms: _3  and  _6
REMARK    4  A    between atoms: _6  and  _7
REMARK    5  A    between atoms: _10  and  _12
REMARK    6  A    between atoms: _12  and  _13
REMARK    7  A    between atoms: _12  and  _15
REMARK    8  A    between atoms: _15  and  _16
REMARK    9  A    between atoms: _21  and  _22
REMARK   10  A    between atoms: _24  and  _26
REMARK   11  A    between atoms: _26  and  _27
REMARK   12  A    between atoms: _26  and  _29
REMARK   13  A    between atoms: _29  and  _30
REMARK   14  A    between atoms: _35  and  _36
REMARK   15  A    between atoms: _38  and  _40
REMARK   16  A    between atoms: _40  and  _41
REMARK   17  A    between atoms: _40  and  _43
REMARK   18  A    between atoms: _43  and  _44
REMARK   19  A    between atoms: _47  and  _49
REMARK   20  A    between atoms: _49  and  _50
REMARK   21  A    between atoms: _49  and  _52
REMARK   22  A    between atoms: _52  and  _53
REMARK   23  A    between atoms: _63  and  _65
REMARK   24  A    between atoms: _65  and  _66
REMARK   25  A    between atoms: _65  and  _68
REMARK   26  A    between atoms: _68  and  _69
REMARK   27  A    between atoms: _69  and  _70
REMARK   28  A    between atoms: _75  and  _77
REMARK   29  A    between atoms: _77  and  _78
REMARK   30  A    between atoms: _77  and  _80
REMARK   31  A    between atoms: _80  and  _81
REMARK   32  A    between atoms: _83  and  _85
REMARK   33  A    between atoms: _85  and  _86
REMARK   34  A    between atoms: _85  and  _88
REMARK   35  A    between atoms: _88  and  _89
REMARK   36  A    between atoms: _99  and  _101
REMARK   37  A    between atoms: _101  and  _102
REMARK   38  A    between atoms: _101  and  _104
REMARK   39  A    between atoms: _104  and  _105
REMARK   40  A    between atoms: _105  and  _106
REMARK   41  A    between atoms: _109  and  _111
REMARK   42  A    between atoms: _111  and  _112
REMARK   43  A    between atoms: _111  and  _114
REMARK   44  A    between atoms: _114  and  _115
REMARK   45  A    between atoms: _120  and  _122
REMARK   46  A    between atoms: _122  and  _123
REMARK   47  A    between atoms: _122  and  _125
REMARK   48  A    between atoms: _128  and  _130
REMARK   49  A    between atoms: _130  and  _131
REMARK   50  A    between atoms: _130  and  _133
REMARK   51  A    between atoms: _135  and  _137
REMARK   52  A    between atoms: _137  and  _138
REMARK   53  A    between atoms: _137  and  _140
REMARK   54  A    between atoms: _140  and  _141
REMARK   55  A    between atoms: _146  and  _148
REMARK   56  A    between atoms: _148  and  _149
REMARK   57  A    between atoms: _152  and  _154
REMARK   58  A    between atoms: _154  and  _155
REMARK   59  A    between atoms: _154  and  _157
REMARK   60  A    between atoms: _157  and  _158
REMARK   61  A    between atoms: _160  and  _162
REMARK   62  A    between atoms: _162  and  _163
REMARK   63  A    between atoms: _166  and  _168
REMARK   64  A    between atoms: _168  and  _169
REMARK   65  A    between atoms: _168  and  _171
REMARK   66  A    between atoms: _171  and  _172
REMARK   67  A    between atoms: _182  and  _184
REMARK   68  A    between atoms: _184  and  _185
REMARK   69  A    between atoms: _184  and  _187
REMARK   70  A    between atoms: _187  and  _188
REMARK   71  A    between atoms: _191  and  _193
REMARK   72  A    between atoms: _193  and  _194
REMARK   73  A    between atoms: _193  and  _196
REMARK   74  A    between atoms: _196  and  _197
REMARK   75  A    between atoms: _202  and  _203
REMARK   76  A    between atoms: _205  and  _207
REMARK   77  A    between atoms: _207  and  _208
REMARK   78  A    between atoms: _207  and  _210
REMARK   79  A    between atoms: _210  and  _211
REMARK   80  A    between atoms: _211  and  _212
REMARK   81  A    between atoms: _212  and  _213
REMARK   82  A    between atoms: _222  and  _224
REMARK   83  A    between atoms: _224  and  _225
REMARK   84  A    between atoms: _224  and  _227
REMARK   85  A    between atoms: _227  and  _228
REMARK   86  A    between atoms: _231  and  _233
REMARK   87  A    between atoms: _233  and  _234
REMARK   88  A    between atoms: _233  and  _236
REMARK   89  A    between atoms: _236  and  _237
REMARK   90  A    between atoms: _237  and  _238
REMARK   91  A    between atoms: _238  and  _239
REMARK   92  A    between atoms: _239  and  _240
REMARK   93  A    between atoms: _244  and  _246
REMARK   94  A    between atoms: _246  and  _247
REMARK   95  A    between atoms: _246  and  _249
REMARK   96  A    between atoms: _249  and  _250
REMARK   97  A    between atoms: _250  and  _251
REMARK   98  A    between atoms: _256  and  _258
REMARK   99  A    between atoms: _258  and  _259
REMARK  100  A    between atoms: _258  and  _261
REMARK  101  A    between atoms: _261  and  _262
REMARK  102  A    between atoms: _262  and  _263
REMARK  103  A    between atoms: _263  and  _264
REMARK  104  A    between atoms: _273  and  _275
REMARK  105  A    between atoms: _275  and  _276
REMARK  106  A    between atoms: _275  and  _278
REMARK  107  A    between atoms: _278  and  _279
REMARK  108  A    between atoms: _282  and  _284
REMARK  109  A    between atoms: _284  and  _285
REMARK  110  A    between atoms: _284  and  _287
REMARK  111  A    between atoms: _287  and  _288
REMARK  112  A    between atoms: _288  and  _289
REMARK  113  A    between atoms: _291  and  _293
REMARK  114  A    between atoms: _293  and  _294
REMARK  115  A    between atoms: _293  and  _296
REMARK  116  A    between atoms: _296  and  _297
REMARK  117  A    between atoms: _300  and  _302
REMARK  118  A    between atoms: _302  and  _303
REMARK  119  A    between atoms: _302  and  _305
REMARK  120  A    between atoms: _305  and  _306
REMARK  121  A    between atoms: _306  and  _307
REMARK  122  A    between atoms: _312  and  _314
REMARK  123  A    between atoms: _314  and  _315
REMARK  124  A    between atoms: _314  and  _317
REMARK  125  A    between atoms: _317  and  _318
REMARK  126  A    between atoms: _321  and  _323
REMARK  127  A    between atoms: _323  and  _324
REMARK  128  A    between atoms: _323  and  _326
REMARK  129  A    between atoms: _326  and  _327
REMARK  130  A    between atoms: _329  and  _331
REMARK  131  A    between atoms: _331  and  _332
REMARK  132  A    between atoms: _331  and  _334
REMARK  133  A    between atoms: _334  and  _335
REMARK  134  A    between atoms: _338  and  _340
REMARK  135  A    between atoms: _340  and  _341
REMARK  136  A    between atoms: _340  and  _343
REMARK  137  A    between atoms: _346  and  _348
REMARK  138  A    between atoms: _348  and  _349
REMARK  139  A    between atoms: _348  and  _351
REMARK  140  A    between atoms: _351  and  _352
REMARK  141  A    between atoms: _357  and  _359
REMARK  142  A    between atoms: _370  and  _373
REMARK  143  A    between atoms: _373  and  _374
REMARK  144  A    between atoms: _374  and  _375
REMARK  145  A    between atoms: _380  and  _383
REMARK  146  A    between atoms: _383  and  _384
REMARK  147  A    between atoms: _384  and  _385
REMARK  148  A    between atoms: _394  and  _395
REMARK  149  A    between atoms: _403  and  _405
REMARK  150  A    between atoms: _405  and  _406
REMARK  151  A    between atoms: _405  and  _408
REMARK  152  A    between atoms: _408  and  _409
REMARK  153  A    between atoms: _412  and  _414
REMARK  154  A    between atoms: _414  and  _415
REMARK  155  A    between atoms: _414  and  _417
REMARK  156  A    between atoms: _417  and  _418
REMARK  157  A    between atoms: _423  and  _424
REMARK  158  A    between atoms: _426  and  _428
REMARK  159  A    between atoms: _428  and  _429
REMARK  160  A    between atoms: _428  and  _431
REMARK  161  A    between atoms: _431  and  _432
REMARK  162  A    between atoms: _437  and  _438
REMARK  163  A    between atoms: _440  and  _442
REMARK  164  A    between atoms: _442  and  _443
REMARK  165  A    between atoms: _442  and  _445
REMARK  166  A    between atoms: _445  and  _446
REMARK  167  A    between atoms: _451  and  _452
REMARK  168  A    between atoms: _454  and  _456
REMARK  169  A    between atoms: _456  and  _457
REMARK  170  A    between atoms: _456  and  _459
REMARK  171  A    between atoms: _459  and  _460
REMARK  172  A    between atoms: _460  and  _461
REMARK  173  A    between atoms: _461  and  _462
REMARK  174  A    between atoms: _471  and  _473
REMARK  175  A    between atoms: _473  and  _474
REMARK  176  A    between atoms: _473  and  _476
REMARK  177  A    between atoms: _476  and  _477
REMARK  178  A    between atoms: _477  and  _478
REMARK  179  A    between atoms: _478  and  _479
REMARK  180  A    between atoms: _488  and  _490
REMARK  181  A    between atoms: _490  and  _491
REMARK  182  A    between atoms: _493  and  _495
REMARK  183  A    between atoms: _495  and  _496
REMARK  184  A    between atoms: _499  and  _501
REMARK  185  A    between atoms: _501  and  _502
REMARK  186  A    between atoms: _501  and  _504
REMARK  187  A    between atoms: _504  and  _505
REMARK  188  A    between atoms: _511  and  _512
REMARK  189  A    between atoms: _517  and  _519
REMARK  190  A    between atoms: _519  and  _520
REMARK  191  A    between atoms: _522  and  _524
REMARK  192  A    between atoms: _524  and  _525
REMARK  193  A    between atoms: _524  and  _527
REMARK  194  A    between atoms: _527  and  _528
REMARK  195  A    between atoms: _534  and  _536
REMARK  196  A    between atoms: _536  and  _537
REMARK  197  A    between atoms: _536  and  _539
REMARK  198  A    between atoms: _539  and  _540
REMARK  199  A    between atoms: _545  and  _547
REMARK  200  A    between atoms: _547  and  _548
REMARK  201  A    between atoms: _547  and  _550
REMARK  202  A    between atoms: _550  and  _551
REMARK  203  A    between atoms: _551  and  _552
REMARK  204  A    between atoms: _552  and  _553
REMARK  205  A    between atoms: _553  and  ZN_801
REMARK  206  A    between atoms: _555  and  _557
REMARK  207  A    between atoms: _557  and  _558
REMARK  208  A    between atoms: _561  and  _563
REMARK  209  A    between atoms: _563  and  _564
REMARK  210  A    between atoms: _566  and  _568
REMARK  211  A    between atoms: _568  and  _569
REMARK  212  A    between atoms: _568  and  _571
REMARK  213  A    between atoms: _571  and  _572
REMARK  214  A    between atoms: _575  and  _577
REMARK  215  A    between atoms: _577  and  _578
REMARK  216  A    between atoms: _581  and  _583
REMARK  217  A    between atoms: _583  and  _584
REMARK  218  A    between atoms: _583  and  _586
REMARK  219  A    between atoms: _586  and  _587
REMARK  220  A    between atoms: _587  and  _588
REMARK  221  A    between atoms: _591  and  _593
REMARK  222  A    between atoms: _593  and  _594
REMARK  223  A    between atoms: _593  and  _596
REMARK  224  A    between atoms: _596  and  _597
REMARK  225  A    between atoms: _597  and  _598
REMARK  226  A    between atoms: _598  and  _599
REMARK  227  A    between atoms: _599  and  _600
REMARK  228  A    between atoms: _604  and  _606
REMARK  229  A    between atoms: _606  and  _607
REMARK  230  A    between atoms: _606  and  _609
REMARK  231  A    between atoms: _609  and  _610
REMARK  232  A    between atoms: _616  and  _618
REMARK  233  A    between atoms: _618  and  _619
REMARK  234  A    between atoms: _618  and  _621
REMARK  235  A    between atoms: _621  and  _622
REMARK  236  A    between atoms: _628  and  _630
REMARK  237  A    between atoms: _630  and  _631
REMARK  238  A    between atoms: _633  and  _635
REMARK  239  A    between atoms: _635  and  _636
REMARK  240  A    between atoms: _635  and  _638
REMARK  241  A    between atoms: _641  and  _643
REMARK  242  A    between atoms: _643  and  _644
REMARK  243  A    between atoms: _643  and  _646
REMARK  244  A    between atoms: _646  and  _647
REMARK  245  A    between atoms: _647  and  _648
REMARK  246  A    between atoms: _648  and  _649
REMARK  247  A    between atoms: _649  and  _650
REMARK  248  A    between atoms: _654  and  _656
REMARK  249  A    between atoms: _656  and  _657
REMARK  250  A    between atoms: _656  and  _659
REMARK  251  A    between atoms: _659  and  _660
REMARK  252  A    between atoms: _666  and  _668
REMARK  253  A    between atoms: _668  and  _669
REMARK  254  A    between atoms: _668  and  _671
REMARK  255  A    between atoms: _671  and  _672
REMARK  256  A    between atoms: _677  and  _679
REMARK  257  A    between atoms: _679  and  _680
REMARK  258  A    between atoms: _679  and  _682
REMARK  259  A    between atoms: _682  and  _683
REMARK  260  A    between atoms: _688  and  _690
REMARK  261  A    between atoms: _690  and  _691
REMARK  262  A    between atoms: _690  and  _693
REMARK  263  A    between atoms: _696  and  _698
REMARK  264  A    between atoms: _698  and  _699
REMARK  265  A    between atoms: _698  and  _701
REMARK  266  A    between atoms: _701  and  _702
REMARK  267  A    between atoms: _706  and  _707
REMARK  268  A    between atoms: _712  and  _714
REMARK  269  A    between atoms: _714  and  _715
REMARK  270  A    between atoms: _714  and  _717
REMARK  271  A    between atoms: _717  and  _718
REMARK  272  A    between atoms: _723  and  _724
REMARK  273  A    between atoms: _726  and  _728
REMARK  274  A    between atoms: _728  and  _729
REMARK  275  A    between atoms: _728  and  _731
REMARK  276  A    between atoms: _731  and  _732
REMARK  277  A    between atoms: _732  and  _733
REMARK  278  A    between atoms: _733  and  _734
REMARK  279  A    between atoms: _743  and  _745
REMARK  280  A    between atoms: _745  and  _746
REMARK  281  A    between atoms: _745  and  _748
REMARK  282  A    between atoms: _748  and  _749
REMARK  283  A    between atoms: _754  and  _755
REMARK  284  A    between atoms: _757  and  _759
REMARK  285  A    between atoms: _759  and  _760
REMARK  286  A    between atoms: _759  and  _762
REMARK  287  A    between atoms: _762  and  _763
REMARK  288  A    between atoms: _769  and  _771
REMARK  289  A    between atoms: _771  and  _772
REMARK  290  A    between atoms: _771  and  _774
REMARK  291  A    between atoms: _774  and  _775
REMARK  292  A    between atoms: _777  and  _779
REMARK  293  A    between atoms: _779  and  _780
REMARK  294  A    between atoms: _779  and  _782
REMARK  295  A    between atoms: _782  and  _783
REMARK  296  A    between atoms: _789  and  _791
REMARK  297  A    between atoms: _791  and  _792
REMARK  298  A    between atoms: _791  and  _794
REMARK  299  A    between atoms: _794  and  _795
REMARK  300  A    between atoms: _795  and  _796
REMARK                            x       y       z     vdW  Elec       q    Type
REMARK                         _______ _______ _______ _____ _____    ______ ____
ROOT
ATOM      1  CG  TYR A   1      -7.954 -31.250 -19.913  0.00  0.00    -0.020 A 
ATOM      2  CD2 TYR A   1      -7.228 -30.467 -19.007  0.00  0.00    -0.001 A 
ATOM      3  CE2 TYR A   1      -7.085 -29.087 -19.183  0.00  0.00    +0.036 A 
ATOM      4  CZ  TYR A   1      -7.691 -28.469 -20.267  0.00  0.00    +0.134 A 
ATOM      5  CE1 TYR A   1      -8.425 -29.224 -21.176  0.00  0.00    +0.036 A 
ATOM      6  CD1 TYR A   1      -8.567 -30.601 -20.987  0.00  0.00    -0.001 A 
ENDROOT
BRANCH   4   7
ATOM      7  OH  TYR A   1      -7.548 -27.101 -20.447  0.00  0.00    -0.506 OA
ATOM      8  HH  TYR A   1      -8.039 -26.823 -21.261  0.00  0.00    +0.292 HD
ENDBRANCH   4   7
BRANCH   1   9
ATOM      9  CB  TYR A   1      -8.128 -32.744 -19.665  0.00  0.00    +0.051 C 
BRANCH   9  10
ATOM     10  CA  TYR A   1      -8.217 -33.697 -20.872  0.00  0.00    +0.137 C 
BRANCH  10  11
ATOM     11  N   TYR A   1      -6.986 -33.693 -21.647  0.00  0.00    -0.239 NA
ATOM     12  H   TYR A   1      -6.645 -32.816 -22.091  0.00  0.00    +0.142 HD
ENDBRANCH  10  11
BRANCH  10  13
ATOM     13  C   TYR A   1      -9.487 -33.496 -21.706  0.00  0.00    +0.224 C 
ATOM     14  O   TYR A   1     -10.567 -33.261 -21.164  0.00  0.00    -0.287 OA
ENDBRANCH  10  13
ENDBRANCH   9  10
ENDBRANCH   1   9
TORSDOF 5
REMARK  Name = ../refined-set-2016/2xyd/2xyd_pocket.pdb
REMARK  300 active torsions:
REMARK  status: ('A' for Active; 'I' for Inactive)
REMARK    1  A    between atoms: _1  and  _3
REMARK    2  A    between atoms: _3  and  _4
REMARK    3  A    between atoms: _3  and  _6
REMARK    4  A    between atoms: _6  and  _7
REMARK    5  A    between atoms: _10  and  _12
REMARK    6  A    between atoms: _12  and  _13
REMARK    7  A    between atoms: _12  and  _15
REMARK    8  A    between atoms: _15  and  _16
REMARK    9  A    between atoms: _21  and  _22
REMARK   10  A    between atoms: _24  and  _26
REMARK   11  A    between atoms: _26  and  _27
REMARK   12  A    between atoms: _26  and  _29
REMARK   13  A    between atoms: _29  and  _30
REMARK   14  A    between atoms: _35  and  _36
REMARK   15  A    between atoms: _38  and  _40
REMARK   16  A    between atoms: _40  and  _41
REMARK   17  A    between atoms: _40  and  _43
REMARK   18  A    between atoms: _43  and  _44
REMARK   19  A    between atoms: _47  and  _49
REMARK   20  A    between atoms: _49  and  _50
REMARK   21  A    between atoms: _49  and  _52
REMARK   22  A    between atoms: _52  and  _53
REMARK   23  A    between atoms: _63  and  _65
REMARK   24  A    between atoms: _65  and  _66
REMARK   25  A    between atoms: _65  and  _68
REMARK   26  A    between atoms: _68  and  _69
REMARK   27  A    between atoms: _69  and  _70
REMARK   28  A    between atoms: _75  and  _77
REMARK   29  A    between atoms: _77  and  _78
REMARK   30  A    between atoms: _77  and  _80
REMARK   31  A    between atoms: _80  and  _81
REMARK   32  A    between atoms: _83  and  _85
REMARK   33  A    between atoms: _85  and  _86
REMARK   34  A    between atoms: _85  and  _88
REMARK   35  A    between atoms: _88  and  _89
REMARK   36  A    between atoms: _99  and  _101
REMARK   37  A    between atoms: _101  and  _102
REMARK   38  A    between atoms: _101  and  _104
REMARK   39  A    between atoms: _104  and  _105
REMARK   40  A    between atoms: _105  and  _106
REMARK   41  A    between atoms: _109  and  _111
REMARK   42  A    between atoms: _111  and  _112
REMARK   43  A    between atoms: _111  and  _114
REMARK   44  A    between atoms: _114  and  _115
REMARK   45  A    between atoms: _120  and  _122
REMARK   46  A    between atoms: _122  and  _123
REMARK   47  A    between atoms: _122  and  _125
REMARK   48  A    between atoms: _128  and  _130
REMARK   49  A    between atoms: _130  and  _131
REMARK   50  A    between atoms: _130  and  _133
REMARK   51  A    between atoms: _135  and  _137
REMARK   52  A    between atoms: _137  and  _138
REMARK   53  A    between atoms: _137  and  _140
REMARK   54  A    between atoms: _140  and  _141
REMARK   55  A    between atoms: _146  and  _148
REMARK   56  A    between atoms: _148  and  _149
REMARK   57  A    between atoms: _152  and  _154
REMARK   58  A    between atoms: _154  and  _155
REMARK   59  A    between atoms: _154  and  _157
REMARK   60  A    between atoms: _157  and  _158
REMARK   61  A    between atoms: _160  and  _162
REMARK   62  A    between atoms: _162  and  _163
REMARK   63  A    between atoms: _166  and  _168
REMARK   64  A    between atoms: _168  and  _169
REMARK   65  A    between atoms: _168  and  _171
REMARK   66  A    between atoms: _171  and  _172
REMARK   67  A    between atoms: _182  and  _184
REMARK   68  A    between atoms: _184  and  _185
REMARK   69  A    between atoms: _184  and  _187
REMARK   70  A    between atoms: _187  and  _188
REMARK   71  A    between atoms: _191  and  _193
REMARK   72  A    between atoms: _193  and  _194
REMARK   73  A    between atoms: _193  and  _196
REMARK   74  A    between atoms: _196  and  _197
REMARK   75  A    between atoms: _202  and  _203
REMARK   76  A    between atoms: _205  and  _207
REMARK   77  A    between atoms: _207  and  _208
REMARK   78  A    between atoms: _207  and  _210
REMARK   79  A    between atoms: _210  and  _211
REMARK   80  A    between atoms: _211  and  _212
REMARK   81  A    between atoms: _212  and  _213
REMARK   82  A    between atoms: _222  and  _224
REMARK   83  A    between atoms: _224  and  _225
REMARK   84  A    between atoms: _224  and  _227
REMARK   85  A    between atoms: _227  and  _228
REMARK   86  A    between atoms: _231  and  _233
REMARK   87  A    between atoms: _233  and  _234
REMARK   88  A    between atoms: _233  and  _236
REMARK   89  A    between atoms: _236  and  _237
REMARK   90  A    between atoms: _237  and  _238
REMARK   91  A    between atoms: _238  and  _239
REMARK   92  A    between atoms: _239  and  _240
REMARK   93  A    between atoms: _244  and  _246
REMARK   94  A    between atoms: _246  and  _247
REMARK   95  A    between atoms: _246  and  _249
REMARK   96  A    between atoms: _249  and  _250
REMARK   97  A    between atoms: _250  and  _251
REMARK   98  A    between atoms: _256  and  _258
REMARK   99  A    between atoms: _258  and  _259
REMARK  100  A    between atoms: _258  and  _261
REMARK  101  A    between atoms: _261  and  _262
REMARK  102  A    between atoms: _262  and  _263
REMARK  103  A    between atoms: _263  and  _264
REMARK  104  A    between atoms: _273  and  _275
REMARK  105  A    between atoms: _275  and  _276
REMARK  106  A    between atoms: _275  and  _278
REMARK  107  A    between atoms: _278  and  _279
REMARK  108  A    between atoms: _282  and  _284
REMARK  109  A    between atoms: _284  and  _285
REMARK  110  A    between atoms: _284  and  _287
REMARK  111  A    between atoms: _287  and  _288
REMARK  112  A    between atoms: _288  and  _289
REMARK  113  A    between atoms: _291  and  _293
REMARK  114  A    between atoms: _293  and  _294
REMARK  115  A    between atoms: _293  and  _296
REMARK  116  A    between atoms: _296  and  _297
REMARK  117  A    between atoms: _300  and  _302
REMARK  118  A    between atoms: _302  and  _303
REMARK  119  A    between atoms: _302  and  _305
REMARK  120  A    between atoms: _305  and  _306
REMARK  121  A    between atoms: _306  and  _307
REMARK  122  A    between atoms: _312  and  _314
REMARK  123  A    between atoms: _314  and  _315
REMARK  124  A    between atoms: _314  and  _317
REMARK  125  A    between atoms: _317  and  _318
REMARK  126  A    between atoms: _321  and  _323
REMARK  127  A    between atoms: _323  and  _324
REMARK  128  A    between atoms: _323  and  _326
REMARK  129  A    between atoms: _326  and  _327
REMARK  130  A    between atoms: _329  and  _331
REMARK  131  A    between atoms: _331  and  _332
REMARK  132  A    between atoms: _331  and  _334
REMARK  133  A    between atoms: _334  and  _335
REMARK  134  A    between atoms: _338  and  _340
REMARK  135  A    between atoms: _340  and  _341
REMARK  136  A    between atoms: _340  and  _343
REMARK  137  A    between atoms: _346  and  _348
REMARK  138  A    between atoms: _348  and  _349
REMARK  139  A    between atoms: _348  and  _351
REMARK  140  A    between atoms: _351  and  _352
REMARK  141  A    between atoms: _357  and  _359
REMARK  142  A    between atoms: _370  and  _373
REMARK  143  A    between atoms: _373  and  _374
REMARK  144  A    between atoms: _374  and  _375
REMARK  145  A    between atoms: _380  and  _383
REMARK  146  A    between atoms: _383  and  _384
REMARK  147  A    between atoms: _384  and  _385
REMARK  148  A    between atoms: _394  and  _395
REMARK  149  A    between atoms: _403  and  _405
REMARK  150  A    between atoms: _405  and  _406
REMARK  151  A    between atoms: _405  and  _408
REMARK  152  A    between atoms: _408  and  _409
REMARK  153  A    between atoms: _412  and  _414
REMARK  154  A    between atoms: _414  and  _415
REMARK  155  A    between atoms: _414  and  _417
REMARK  156  A    between atoms: _417  and  _418
REMARK  157  A    between atoms: _423  and  _424
REMARK  158  A    between atoms: _426  and  _428
REMARK  159  A    between atoms: _428  and  _429
REMARK  160  A    between atoms: _428  and  _431
REMARK  161  A    between atoms: _431  and  _432
REMARK  162  A    between atoms: _437  and  _438
REMARK  163  A    between atoms: _440  and  _442
REMARK  164  A    between atoms: _442  and  _443
REMARK  165  A    between atoms: _442  and  _445
REMARK  166  A    between atoms: _445  and  _446
REMARK  167  A    between atoms: _451  and  _452
REMARK  168  A    between atoms: _454  and  _456
REMARK  169  A    between atoms: _456  and  _457
REMARK  170  A    between atoms: _456  and  _459
REMARK  171  A    between atoms: _459  and  _460
REMARK  172  A    between atoms: _460  and  _461
REMARK  173  A    between atoms: _461  and  _462
REMARK  174  A    between atoms: _471  and  _473
REMARK  175  A    between atoms: _473  and  _474
REMARK  176  A    between atoms: _473  and  _476
REMARK  177  A    between atoms: _476  and  _477
REMARK  178  A    between atoms: _477  and  _478
REMARK  179  A    between atoms: _478  and  _479
REMARK  180  A    between atoms: _488  and  _490
REMARK  181  A    between atoms: _490  and  _491
REMARK  182  A    between atoms: _493  and  _495
REMARK  183  A    between atoms: _495  and  _496
REMARK  184  A    between atoms: _499  and  _501
REMARK  185  A    between atoms: _501  and  _502
REMARK  186  A    between atoms: _501  and  _504
REMARK  187  A    between atoms: _504  and  _505
REMARK  188  A    between atoms: _511  and  _512
REMARK  189  A    between atoms: _517  and  _519
REMARK  190  A    between atoms: _519  and  _520
REMARK  191  A    between atoms: _522  and  _524
REMARK  192  A    between atoms: _524  and  _525
REMARK  193  A    between atoms: _524  and  _527
REMARK  194  A    between atoms: _527  and  _528
REMARK  195  A    between atoms: _534  and  _536
REMARK  196  A    between atoms: _536  and  _537
REMARK  197  A    between atoms: _536  and  _539
REMARK  198  A    between atoms: _539  and  _540
REMARK  199  A    between atoms: _545  and  _547
REMARK  200  A    between atoms: _547  and  _548
REMARK  201  A    between atoms: _547  and  _550
REMARK  202  A    between atoms: _550  and  _551
REMARK  203  A    between atoms: _551  and  _552
REMARK  204  A    between atoms: _552  and  _553
REMARK  205  A    between atoms: _553  and  ZN_801
REMARK  206  A    between atoms: _555  and  _557
REMARK  207  A    between atoms: _557  and  _558
REMARK  208  A    between atoms: _561  and  _563
REMARK  209  A    between atoms: _563  and  _564
REMARK  210  A    between atoms: _566  and  _568
REMARK  211  A    between atoms: _568  and  _569
REMARK  212  A    between atoms: _568  and  _571
REMARK  213  A    between atoms: _571  and  _572
REMARK  214  A    between atoms: _575  and  _577
REMARK  215  A    between atoms: _577  and  _578
REMARK  216  A    between atoms: _581  and  _583
REMARK  217  A    between atoms: _583  and  _584
REMARK  218  A    between atoms: _583  and  _586
REMARK  219  A    between atoms: _586  and  _587
REMARK  220  A    between atoms: _587  and  _588
REMARK  221  A    between atoms: _591  and  _593
REMARK  222  A    between atoms: _593  and  _594
REMARK  223  A    between atoms: _593  and  _596
REMARK  224  A    between atoms: _596  and  _597
REMARK  225  A    between atoms: _597  and  _598
REMARK  226  A    between atoms: _598  and  _599
REMARK  227  A    between atoms: _599  and  _600
REMARK  228  A    between atoms: _604  and  _606
REMARK  229  A    between atoms: _606  and  _607
REMARK  230  A    between atoms: _606  and  _609
REMARK  231  A    between atoms: _609  and  _610
REMARK  232  A    between atoms: _616  and  _618
REMARK  233  A    between atoms: _618  and  _619
REMARK  234  A    between atoms: _618  and  _621
REMARK  235  A    between atoms: _621  and  _622
REMARK  236  A    between atoms: _628  and  _630
REMARK  237  A    between atoms: _630  and  _631
REMARK  238  A    between atoms: _633  and  _635
REMARK  239  A    between atoms: _635  and  _636
REMARK  240  A    between atoms: _635  and  _638
REMARK  241  A    between atoms: _641  and  _643
REMARK  242  A    between atoms: _643  and  _644
REMARK  243  A    between atoms: _643  and  _646
REMARK  244  A    between atoms: _646  and  _647
REMARK  245  A    between atoms: _647  and  _648
REMARK  246  A    between atoms: _648  and  _649
REMARK  247  A    between atoms: _649  and  _650
REMARK  248  A    between atoms: _654  and  _656
REMARK  249  A    between atoms: _656  and  _657
REMARK  250  A    between atoms: _656  and  _659
REMARK  251  A    between atoms: _659  and  _660
REMARK  252  A    between atoms: _666  and  _668
REMARK  253  A    between atoms: _668  and  _669
REMARK  254  A    between atoms: _668  and  _671
REMARK  255  A    between atoms: _671  and  _672
REMARK  256  A    between atoms: _677  and  _679
REMARK  257  A    between atoms: _679  and  _680
REMARK  258  A    between atoms: _679  and  _682
REMARK  259  A    between atoms: _682  and  _683
REMARK  260  A    between atoms: _688  and  _690
REMARK  261  A    between atoms: _690  and  _691
REMARK  262  A    between atoms: _690  and  _693
REMARK  263  A    between atoms: _696  and  _698
REMARK  264  A    between atoms: _698  and  _699
REMARK  265  A    between atoms: _698  and  _701
REMARK  266  A    between atoms: _701  and  _702
REMARK  267  A    between atoms: _706  and  _707
REMARK  268  A    between atoms: _712  and  _714
REMARK  269  A    between atoms: _714  and  _715
REMARK  270  A    between atoms: _714  and  _717
REMARK  271  A    between atoms: _717  and  _718
REMARK  272  A    between atoms: _723  and  _724
REMARK  273  A    between atoms: _726  and  _728
REMARK  274  A    between atoms: _728  and  _729
REMARK  275  A    between atoms: _728  and  _731
REMARK  276  A    between atoms: _731  and  _732
REMARK  277  A    between atoms: _732  and  _733
REMARK  278  A    between atoms: _733  and  _734
REMARK  279  A    between atoms: _743  and  _745
REMARK  280  A    between atoms: _745  and  _746
REMARK  281  A    between atoms: _745  and  _748
REMARK  282  A    between atoms: _748  and  _749
REMARK  283  A    between atoms: _754  and  _755
REMARK  284  A    between atoms: _757  and  _759
REMARK  285  A    between atoms: _759  and  _760
REMARK  286  A    between atoms: _759  and  _762
REMARK  287  A    between atoms: _762  and  _763
REMARK  288  A    between atoms: _769  and  _771
REMARK  289  A    between atoms: _771  and  _772
REMARK  290  A    between atoms: _771  and  _774
REMARK  291  A    between atoms: _774  and  _775
REMARK  292  A    between atoms: _777  and  _779
REMARK  293  A    between atoms: _779  and  _780
REMARK  294  A    between atoms: _779  and  _782
REMARK  295  A    between atoms: _782  and  _783
REMARK  296  A    between atoms: _789  and  _791
REMARK  297  A    between atoms: _791  and  _792
REMARK  298  A    between atoms: _791  and  _794
REMARK  299  A    between atoms: _794  and  _795
REMARK  300  A    between atoms: _795  and  _796
REMARK                            x       y       z     vdW  Elec       q    Type
REMARK                         _______ _______ _______ _____ _____    ______ ____
ROOT
ATOM      1  C   GLY A   1       6.946 -25.220 -21.197  0.00  0.00    +0.240 C 
ATOM      2  N   ASP A   2       6.956 -24.345 -20.190  0.00  0.00    -0.298 N 
ATOM      3  H   ASP A   2       6.047 -24.048 -19.782  0.00  0.00    +0.150 HD
ATOM      4  O   GLY A   1       7.957 -25.608 -21.766  0.00  0.00    -0.274 OA
ENDROOT
BRANCH   1   5
ATOM      5  CA  GLY A   1       5.581 -25.715 -21.646  0.00  0.00    +0.169 C 
BRANCH   5   6
ATOM      6  N   GLY A   1       4.652 -25.913 -20.544  0.00  0.00    -0.236 NA
ATOM      7  H   GLY A   1       3.859 -25.251 -20.424  0.00  0.00    +0.142 HD
ENDBRANCH   5   6
ENDBRANCH   1   5
BRANCH   2   8
ATOM      8  CA  ASP A   2       8.175 -23.790 -19.638  0.00  0.00    +0.148 C 
BRANCH   8   9
ATOM      9  C   ASP A   2       9.063 -24.899 -19.069  0.00  0.00    +0.227 C 
ATOM     10  O   ASP A   2      10.280 -24.834 -19.181  0.00  0.00    -0.286 OA
ENDBRANCH   8   9
BRANCH   8  11
ATOM     11  CB  ASP A   2       7.856 -22.777 -18.535  0.00  0.00    +0.142 C 
BRANCH  11  12
ATOM     12  CG  ASP A   2       7.341 -21.442 -19.067  0.00  0.00    +0.367 C 
ATOM     13  OD2 ASP A   2       7.448 -20.454 -18.301  0.00  0.00    -0.246 OA
ATOM     14  OD1 ASP A   2       6.816 -21.373 -20.211  0.00  0.00    -0.246 OA
ENDBRANCH  11  12
ENDBRANCH   8  11
ENDBRANCH   2   8
TORSDOF 6
REMARK  Name = ../refined-set-2016/2xyd/2xyd_pocket.pdb
REMARK  300 active torsions:
REMARK  status: ('A' for Active; 'I' for Inactive)
REMARK    1  A    between atoms: _1  and  _3
REMARK    2  A    between atoms: _3  and  _4
REMARK    3  A    between atoms: _3  and  _6
REMARK    4  A    between atoms: _6  and  _7
REMARK    5  A    between atoms: _10  and  _12
REMARK    6  A    between atoms: _12  and  _13
REMARK    7  A    between atoms: _12  and  _15
REMARK    8  A    between atoms: _15  and  _16
REMARK    9  A    between atoms: _21  and  _22
REMARK   10  A    between atoms: _24  and  _26
REMARK   11  A    between atoms: _26  and  _27
REMARK   12  A    between atoms: _26  and  _29
REMARK   13  A    between atoms: _29  and  _30
REMARK   14  A    between atoms: _35  and  _36
REMARK   15  A    between atoms: _38  and  _40
REMARK   16  A    between atoms: _40  and  _41
REMARK   17  A    between atoms: _40  and  _43
REMARK   18  A    between atoms: _43  and  _44
REMARK   19  A    between atoms: _47  and  _49
REMARK   20  A    between atoms: _49  and  _50
REMARK   21  A    between atoms: _49  and  _52
REMARK   22  A    between atoms: _52  and  _53
REMARK   23  A    between atoms: _63  and  _65
REMARK   24  A    between atoms: _65  and  _66
REMARK   25  A    between atoms: _65  and  _68
REMARK   26  A    between atoms: _68  and  _69
REMARK   27  A    between atoms: _69  and  _70
REMARK   28  A    between atoms: _75  and  _77
REMARK   29  A    between atoms: _77  and  _78
REMARK   30  A    between atoms: _77  and  _80
REMARK   31  A    between atoms: _80  and  _81
REMARK   32  A    between atoms: _83  and  _85
REMARK   33  A    between atoms: _85  and  _86
REMARK   34  A    between atoms: _85  and  _88
REMARK   35  A    between atoms: _88  and  _89
REMARK   36  A    between atoms: _99  and  _101
REMARK   37  A    between atoms: _101  and  _102
REMARK   38  A    between atoms: _101  and  _104
REMARK   39  A    between atoms: _104  and  _105
REMARK   40  A    between atoms: _105  and  _106
REMARK   41  A    between atoms: _109  and  _111
REMARK   42  A    between atoms: _111  and  _112
REMARK   43  A    between atoms: _111  and  _114
REMARK   44  A    between atoms: _114  and  _115
REMARK   45  A    between atoms: _120  and  _122
REMARK   46  A    between atoms: _122  and  _123
REMARK   47  A    between atoms: _122  and  _125
REMARK   48  A    between atoms: _128  and  _130
REMARK   49  A    between atoms: _130  and  _131
REMARK   50  A    between atoms: _130  and  _133
REMARK   51  A    between atoms: _135  and  _137
REMARK   52  A    between atoms: _137  and  _138
REMARK   53  A    between atoms: _137  and  _140
REMARK   54  A    between atoms: _140  and  _141
REMARK   55  A    between atoms: _146  and  _148
REMARK   56  A    between atoms: _148  and  _149
REMARK   57  A    between atoms: _152  and  _154
REMARK   58  A    between atoms: _154  and  _155
REMARK   59  A    between atoms: _154  and  _157
REMARK   60  A    between atoms: _157  and  _158
REMARK   61  A    between atoms: _160  and  _162
REMARK   62  A    between atoms: _162  and  _163
REMARK   63  A    between atoms: _166  and  _168
REMARK   64  A    between atoms: _168  and  _169
REMARK   65  A    between atoms: _168  and  _171
REMARK   66  A    between atoms: _171  and  _172
REMARK   67  A    between atoms: _182  and  _184
REMARK   68  A    between atoms: _184  and  _185
REMARK   69  A    between atoms: _184  and  _187
REMARK   70  A    between atoms: _187  and  _188
REMARK   71  A    between atoms: _191  and  _193
REMARK   72  A    between atoms: _193  and  _194
REMARK   73  A    between atoms: _193  and  _196
REMARK   74  A    between atoms: _196  and  _197
REMARK   75  A    between atoms: _202  and  _203
REMARK   76  A    between atoms: _205  and  _207
REMARK   77  A    between atoms: _207  and  _208
REMARK   78  A    between atoms: _207  and  _210
REMARK   79  A    between atoms: _210  and  _211
REMARK   80  A    between atoms: _211  and  _212
REMARK   81  A    between atoms: _212  and  _213
REMARK   82  A    between atoms: _222  and  _224
REMARK   83  A    between atoms: _224  and  _225
REMARK   84  A    between atoms: _224  and  _227
REMARK   85  A    between atoms: _227  and  _228
REMARK   86  A    between atoms: _231  and  _233
REMARK   87  A    between atoms: _233  and  _234
REMARK   88  A    between atoms: _233  and  _236
REMARK   89  A    between atoms: _236  and  _237
REMARK   90  A    between atoms: _237  and  _238
REMARK   91  A    between atoms: _238  and  _239
REMARK   92  A    between atoms: _239  and  _240
REMARK   93  A    between atoms: _244  and  _246
REMARK   94  A    between atoms: _246  and  _247
REMARK   95  A    between atoms: _246  and  _249
REMARK   96  A    between atoms: _249  and  _250
REMARK   97  A    between atoms: _250  and  _251
REMARK   98  A    between atoms: _256  and  _258
REMARK   99  A    between atoms: _258  and  _259
REMARK  100  A    between atoms: _258  and  _261
REMARK  101  A    between atoms: _261  and  _262
REMARK  102  A    between atoms: _262  and  _263
REMARK  103  A    between atoms: _263  and  _264
REMARK  104  A    between atoms: _273  and  _275
REMARK  105  A    between atoms: _275  and  _276
REMARK  106  A    between atoms: _275  and  _278
REMARK  107  A    between atoms: _278  and  _279
REMARK  108  A    between atoms: _282  and  _284
REMARK  109  A    between atoms: _284  and  _285
REMARK  110  A    between atoms: _284  and  _287
REMARK  111  A    between atoms: _287  and  _288
REMARK  112  A    between atoms: _288  and  _289
REMARK  113  A    between atoms: _291  and  _293
REMARK  114  A    between atoms: _293  and  _294
REMARK  115  A    between atoms: _293  and  _296
REMARK  116  A    between atoms: _296  and  _297
REMARK  117  A    between atoms: _300  and  _302
REMARK  118  A    between atoms: _302  and  _303
REMARK  119  A    between atoms: _302  and  _305
REMARK  120  A    between atoms: _305  and  _306
REMARK  121  A    between atoms: _306  and  _307
REMARK  122  A    between atoms: _312  and  _314
REMARK  123  A    between atoms: _314  and  _315
REMARK  124  A    between atoms: _314  and  _317
REMARK  125  A    between atoms: _317  and  _318
REMARK  126  A    between atoms: _321  and  _323
REMARK  127  A    between atoms: _323  and  _324
REMARK  128  A    between atoms: _323  and  _326
REMARK  129  A    between atoms: _326  and  _327
REMARK  130  A    between atoms: _329  and  _331
REMARK  131  A    between atoms: _331  and  _332
REMARK  132  A    between atoms: _331  and  _334
REMARK  133  A    between atoms: _334  and  _335
REMARK  134  A    between atoms: _338  and  _340
REMARK  135  A    between atoms: _340  and  _341
REMARK  136  A    between atoms: _340  and  _343
REMARK  137  A    between atoms: _346  and  _348
REMARK  138  A    between atoms: _348  and  _349
REMARK  139  A    between atoms: _348  and  _351
REMARK  140  A    between atoms: _351  and  _352
REMARK  141  A    between atoms: _357  and  _359
REMARK  142  A    between atoms: _370  and  _373
REMARK  143  A    between atoms: _373  and  _374
REMARK  144  A    between atoms: _374  and  _375
REMARK  145  A    between atoms: _380  and  _383
REMARK  146  A    between atoms: _383  and  _384
REMARK  147  A    between atoms: _384  and  _385
REMARK  148  A    between atoms: _394  and  _395
REMARK  149  A    between atoms: _403  and  _405
REMARK  150  A    between atoms: _405  and  _406
REMARK  151  A    between atoms: _405  and  _408
REMARK  152  A    between atoms: _408  and  _409
REMARK  153  A    between atoms: _412  and  _414
REMARK  154  A    between atoms: _414  and  _415
REMARK  155  A    between atoms: _414  and  _417
REMARK  156  A    between atoms: _417  and  _418
REMARK  157  A    between atoms: _423  and  _424
REMARK  158  A    between atoms: _426  and  _428
REMARK  159  A    between atoms: _428  and  _429
REMARK  160  A    between atoms: _428  and  _431
REMARK  161  A    between atoms: _431  and  _432
REMARK  162  A    between atoms: _437  and  _438
REMARK  163  A    between atoms: _440  and  _442
REMARK  164  A    between atoms: _442  and  _443
REMARK  165  A    between atoms: _442  and  _445
REMARK  166  A    between atoms: _445  and  _446
REMARK  167  A    between atoms: _451  and  _452
REMARK  168  A    between atoms: _454  and  _456
REMARK  169  A    between atoms: _456  and  _457
REMARK  170  A    between atoms: _456  and  _459
REMARK  171  A    between atoms: _459  and  _460
REMARK  172  A    between atoms: _460  and  _461
REMARK  173  A    between atoms: _461  and  _462
REMARK  174  A    between atoms: _471  and  _473
REMARK  175  A    between atoms: _473  and  _474
REMARK  176  A    between atoms: _473  and  _476
REMARK  177  A    between atoms: _476  and  _477
REMARK  178  A    between atoms: _477  and  _478
REMARK  179  A    between atoms: _478  and  _479
REMARK  180  A    between atoms: _488  and  _490
REMARK  181  A    between atoms: _490  and  _491
REMARK  182  A    between atoms: _493  and  _495
REMARK  183  A    between atoms: _495  and  _496
REMARK  184  A    between atoms: _499  and  _501
REMARK  185  A    between atoms: _501  and  _502
REMARK  186  A    between atoms: _501  and  _504
REMARK  187  A    between atoms: _504  and  _505
REMARK  188  A    between atoms: _511  and  _512
REMARK  189  A    between atoms: _517  and  _519
REMARK  190  A    between atoms: _519  and  _520
REMARK  191  A    between atoms: _522  and  _524
REMARK  192  A    between atoms: _524  and  _525
REMARK  193  A    between atoms: _524  and  _527
REMARK  194  A    between atoms: _527  and  _528
REMARK  195  A    between atoms: _534  and  _536
REMARK  196  A    between atoms: _536  and  _537
REMARK  197  A    between atoms: _536  and  _539
REMARK  198  A    between atoms: _539  and  _540
REMARK  199  A    between atoms: _545  and  _547
REMARK  200  A    between atoms: _547  and  _548
REMARK  201  A    between atoms: _547  and  _550
REMARK  202  A    between atoms: _550  and  _551
REMARK  203  A    between atoms: _551  and  _552
REMARK  204  A    between atoms: _552  and  _553
REMARK  205  A    between atoms: _553  and  ZN_801
REMARK  206  A    between atoms: _555  and  _557
REMARK  207  A    between atoms: _557  and  _558
REMARK  208  A    between atoms: _561  and  _563
REMARK  209  A    between atoms: _563  and  _564
REMARK  210  A    between atoms: _566  and  _568
REMARK  211  A    between atoms: _568  and  _569
REMARK  212  A    between atoms: _568  and  _571
REMARK  213  A    between atoms: _571  and  _572
REMARK  214  A    between atoms: _575  and  _577
REMARK  215  A    between atoms: _577  and  _578
REMARK  216  A    between atoms: _581  and  _583
REMARK  217  A    between atoms: _583  and  _584
REMARK  218  A    between atoms: _583  and  _586
REMARK  219  A    between atoms: _586  and  _587
REMARK  220  A    between atoms: _587  and  _588
REMARK  221  A    between atoms: _591  and  _593
REMARK  222  A    between atoms: _593  and  _594
REMARK  223  A    between atoms: _593  and  _596
REMARK  224  A    between atoms: _596  and  _597
REMARK  225  A    between atoms: _597  and  _598
REMARK  226  A    between atoms: _598  and  _599
REMARK  227  A    between atoms: _599  and  _600
REMARK  228  A    between atoms: _604  and  _606
REMARK  229  A    between atoms: _606  and  _607
REMARK  230  A    between atoms: _606  and  _609
REMARK  231  A    between atoms: _609  and  _610
REMARK  232  A    between atoms: _616  and  _618
REMARK  233  A    between atoms: _618  and  _619
REMARK  234  A    between atoms: _618  and  _621
REMARK  235  A    between atoms: _621  and  _622
REMARK  236  A    between atoms: _628  and  _630
REMARK  237  A    between atoms: _630  and  _631
REMARK  238  A    between atoms: _633  and  _635
REMARK  239  A    between atoms: _635  and  _636
REMARK  240  A    between atoms: _635  and  _638
REMARK  241  A    between atoms: _641  and  _643
REMARK  242  A    between atoms: _643  and  _644
REMARK  243  A    between atoms: _643  and  _646
REMARK  244  A    between atoms: _646  and  _647
REMARK  245  A    between atoms: _647  and  _648
REMARK  246  A    between atoms: _648  and  _649
REMARK  247  A    between atoms: _649  and  _650
REMARK  248  A    between atoms: _654  and  _656
REMARK  249  A    between atoms: _656  and  _657
REMARK  250  A    between atoms: _656  and  _659
REMARK  251  A    between atoms: _659  and  _660
REMARK  252  A    between atoms: _666  and  _668
REMARK  253  A    between atoms: _668  and  _669
REMARK  254  A    between atoms: _668  and  _671
REMARK  255  A    between atoms: _671  and  _672
REMARK  256  A    between atoms: _677  and  _679
REMARK  257  A    between atoms: _679  and  _680
REMARK  258  A    between atoms: _679  and  _682
REMARK  259  A    between atoms: _682  and  _683
REMARK  260  A    between atoms: _688  and  _690
REMARK  261  A    between atoms: _690  and  _691
REMARK  262  A    between atoms: _690  and  _693
REMARK  263  A    between atoms: _696  and  _698
REMARK  264  A    between atoms: _698  and  _699
REMARK  265  A    between atoms: _698  and  _701
REMARK  266  A    between atoms: _701  and  _702
REMARK  267  A    between atoms: _706  and  _707
REMARK  268  A    between atoms: _712  and  _714
REMARK  269  A    between atoms: _714  and  _715
REMARK  270  A    between atoms: _714  and  _717
REMARK  271  A    between atoms: _717  and  _718
REMARK  272  A    between atoms: _723  and  _724
REMARK  273  A    between atoms: _726  and  _728
REMARK  274  A    between atoms: _728  and  _729
REMARK  275  A    between atoms: _728  and  _731
REMARK  276  A    between atoms: _731  and  _732
REMARK  277  A    between atoms: _732  and  _733
REMARK  278  A    between atoms: _733  and  _734
REMARK  279  A    between atoms: _743  and  _745
REMARK  280  A    between atoms: _745  and  _746
REMARK  281  A    between atoms: _745  and  _748
REMARK  282  A    between atoms: _748  and  _749
REMARK  283  A    between atoms: _754  and  _755
REMARK  284  A    between atoms: _757  and  _759
REMARK  285  A    between atoms: _759  and  _760
REMARK  286  A    between atoms: _759  and  _762
REMARK  287  A    between atoms: _762  and  _763
REMARK  288  A    between atoms: _769  and  _771
REMARK  289  A    between atoms: _771  and  _772
REMARK  290  A    between atoms: _771  and  _774
REMARK  291  A    between atoms: _774  and  _775
REMARK  292  A    between atoms: _777  and  _779
REMARK  293  A    between atoms: _779  and  _780
REMARK  294  A    between atoms: _779  and  _782
REMARK  295  A    between atoms: _782  and  _783
REMARK  296  A    between atoms: _789  and  _791
REMARK  297  A    between atoms: _791  and  _792
REMARK  298  A    between atoms: _791  and  _794
REMARK  299  A    between atoms: _794  and  _795
REMARK  300  A    between atoms: _795  and  _796
REMARK                            x       y       z     vdW  Elec       q    Type
REMARK                         _______ _______ _______ _____ _____    ______ ____
ROOT
ATOM      1  CA  ALA A   1      11.792 -25.420 -22.325  0.00  0.00    +0.133 C 
ATOM      2  CB  ALA A   1      11.176 -24.028 -22.501  0.00  0.00    +0.027 C 
ENDROOT
BRANCH   1   3
ATOM      3  N   ALA A   1      10.803 -26.393 -21.836  0.00  0.00    -0.239 NA
ATOM      4  H   ALA A   1       9.870 -26.061 -21.519  0.00  0.00    +0.142 HD
ENDBRANCH   1   3
BRANCH   1   5
ATOM      5  C   ALA A   1      13.035 -25.365 -21.424  0.00  0.00    +0.224 C 
ATOM      6  O   ALA A   1      14.130 -25.058 -21.887  0.00  0.00    -0.287 OA
ENDBRANCH   1   5
TORSDOF 2
REMARK  Name = ../refined-set-2016/2xyd/2xyd_pocket.pdb
REMARK  300 active torsions:
REMARK  status: ('A' for Active; 'I' for Inactive)
REMARK    1  A    between atoms: _1  and  _3
REMARK    2  A    between atoms: _3  and  _4
REMARK    3  A    between atoms: _3  and  _6
REMARK    4  A    between atoms: _6  and  _7
REMARK    5  A    between atoms: _10  and  _12
REMARK    6  A    between atoms: _12  and  _13
REMARK    7  A    between atoms: _12  and  _15
REMARK    8  A    between atoms: _15  and  _16
REMARK    9  A    between atoms: _21  and  _22
REMARK   10  A    between atoms: _24  and  _26
REMARK   11  A    between atoms: _26  and  _27
REMARK   12  A    between atoms: _26  and  _29
REMARK   13  A    between atoms: _29  and  _30
REMARK   14  A    between atoms: _35  and  _36
REMARK   15  A    between atoms: _38  and  _40
REMARK   16  A    between atoms: _40  and  _41
REMARK   17  A    between atoms: _40  and  _43
REMARK   18  A    between atoms: _43  and  _44
REMARK   19  A    between atoms: _47  and  _49
REMARK   20  A    between atoms: _49  and  _50
REMARK   21  A    between atoms: _49  and  _52
REMARK   22  A    between atoms: _52  and  _53
REMARK   23  A    between atoms: _63  and  _65
REMARK   24  A    between atoms: _65  and  _66
REMARK   25  A    between atoms: _65  and  _68
REMARK   26  A    between atoms: _68  and  _69
REMARK   27  A    between atoms: _69  and  _70
REMARK   28  A    between atoms: _75  and  _77
REMARK   29  A    between atoms: _77  and  _78
REMARK   30  A    between atoms: _77  and  _80
REMARK   31  A    between atoms: _80  and  _81
REMARK   32  A    between atoms: _83  and  _85
REMARK   33  A    between atoms: _85  and  _86
REMARK   34  A    between atoms: _85  and  _88
REMARK   35  A    between atoms: _88  and  _89
REMARK   36  A    between atoms: _99  and  _101
REMARK   37  A    between atoms: _101  and  _102
REMARK   38  A    between atoms: _101  and  _104
REMARK   39  A    between atoms: _104  and  _105
REMARK   40  A    between atoms: _105  and  _106
REMARK   41  A    between atoms: _109  and  _111
REMARK   42  A    between atoms: _111  and  _112
REMARK   43  A    between atoms: _111  and  _114
REMARK   44  A    between atoms: _114  and  _115
REMARK   45  A    between atoms: _120  and  _122
REMARK   46  A    between atoms: _122  and  _123
REMARK   47  A    between atoms: _122  and  _125
REMARK   48  A    between atoms: _128  and  _130
REMARK   49  A    between atoms: _130  and  _131
REMARK   50  A    between atoms: _130  and  _133
REMARK   51  A    between atoms: _135  and  _137
REMARK   52  A    between atoms: _137  and  _138
REMARK   53  A    between atoms: _137  and  _140
REMARK   54  A    between atoms: _140  and  _141
REMARK   55  A    between atoms: _146  and  _148
REMARK   56  A    between atoms: _148  and  _149
REMARK   57  A    between atoms: _152  and  _154
REMARK   58  A    between atoms: _154  and  _155
REMARK   59  A    between atoms: _154  and  _157
REMARK   60  A    between atoms: _157  and  _158
REMARK   61  A    between atoms: _160  and  _162
REMARK   62  A    between atoms: _162  and  _163
REMARK   63  A    between atoms: _166  and  _168
REMARK   64  A    between atoms: _168  and  _169
REMARK   65  A    between atoms: _168  and  _171
REMARK   66  A    between atoms: _171  and  _172
REMARK   67  A    between atoms: _182  and  _184
REMARK   68  A    between atoms: _184  and  _185
REMARK   69  A    between atoms: _184  and  _187
REMARK   70  A    between atoms: _187  and  _188
REMARK   71  A    between atoms: _191  and  _193
REMARK   72  A    between atoms: _193  and  _194
REMARK   73  A    between atoms: _193  and  _196
REMARK   74  A    between atoms: _196  and  _197
REMARK   75  A    between atoms: _202  and  _203
REMARK   76  A    between atoms: _205  and  _207
REMARK   77  A    between atoms: _207  and  _208
REMARK   78  A    between atoms: _207  and  _210
REMARK   79  A    between atoms: _210  and  _211
REMARK   80  A    between atoms: _211  and  _212
REMARK   81  A    between atoms: _212  and  _213
REMARK   82  A    between atoms: _222  and  _224
REMARK   83  A    between atoms: _224  and  _225
REMARK   84  A    between atoms: _224  and  _227
REMARK   85  A    between atoms: _227  and  _228
REMARK   86  A    between atoms: _231  and  _233
REMARK   87  A    between atoms: _233  and  _234
REMARK   88  A    between atoms: _233  and  _236
REMARK   89  A    between atoms: _236  and  _237
REMARK   90  A    between atoms: _237  and  _238
REMARK   91  A    between atoms: _238  and  _239
REMARK   92  A    between atoms: _239  and  _240
REMARK   93  A    between atoms: _244  and  _246
REMARK   94  A    between atoms: _246  and  _247
REMARK   95  A    between atoms: _246  and  _249
REMARK   96  A    between atoms: _249  and  _250
REMARK   97  A    between atoms: _250  and  _251
REMARK   98  A    between atoms: _256  and  _258
REMARK   99  A    between atoms: _258  and  _259
REMARK  100  A    between atoms: _258  and  _261
REMARK  101  A    between atoms: _261  and  _262
REMARK  102  A    between atoms: _262  and  _263
REMARK  103  A    between atoms: _263  and  _264
REMARK  104  A    between atoms: _273  and  _275
REMARK  105  A    between atoms: _275  and  _276
REMARK  106  A    between atoms: _275  and  _278
REMARK  107  A    between atoms: _278  and  _279
REMARK  108  A    between atoms: _282  and  _284
REMARK  109  A    between atoms: _284  and  _285
REMARK  110  A    between atoms: _284  and  _287
REMARK  111  A    between atoms: _287  and  _288
REMARK  112  A    between atoms: _288  and  _289
REMARK  113  A    between atoms: _291  and  _293
REMARK  114  A    between atoms: _293  and  _294
REMARK  115  A    between atoms: _293  and  _296
REMARK  116  A    between atoms: _296  and  _297
REMARK  117  A    between atoms: _300  and  _302
REMARK  118  A    between atoms: _302  and  _303
REMARK  119  A    between atoms: _302  and  _305
REMARK  120  A    between atoms: _305  and  _306
REMARK  121  A    between atoms: _306  and  _307
REMARK  122  A    between atoms: _312  and  _314
REMARK  123  A    between atoms: _314  and  _315
REMARK  124  A    between atoms: _314  and  _317
REMARK  125  A    between atoms: _317  and  _318
REMARK  126  A    between atoms: _321  and  _323
REMARK  127  A    between atoms: _323  and  _324
REMARK  128  A    between atoms: _323  and  _326
REMARK  129  A    between atoms: _326  and  _327
REMARK  130  A    between atoms: _329  and  _331
REMARK  131  A    between atoms: _331  and  _332
REMARK  132  A    between atoms: _331  and  _334
REMARK  133  A    between atoms: _334  and  _335
REMARK  134  A    between atoms: _338  and  _340
REMARK  135  A    between atoms: _340  and  _341
REMARK  136  A    between atoms: _340  and  _343
REMARK  137  A    between atoms: _346  and  _348
REMARK  138  A    between atoms: _348  and  _349
REMARK  139  A    between atoms: _348  and  _351
REMARK  140  A    between atoms: _351  and  _352
REMARK  141  A    between atoms: _357  and  _359
REMARK  142  A    between atoms: _370  and  _373
REMARK  143  A    between atoms: _373  and  _374
REMARK  144  A    between atoms: _374  and  _375
REMARK  145  A    between atoms: _380  and  _383
REMARK  146  A    between atoms: _383  and  _384
REMARK  147  A    between atoms: _384  and  _385
REMARK  148  A    between atoms: _394  and  _395
REMARK  149  A    between atoms: _403  and  _405
REMARK  150  A    between atoms: _405  and  _406
REMARK  151  A    between atoms: _405  and  _408
REMARK  152  A    between atoms: _408  and  _409
REMARK  153  A    between atoms: _412  and  _414
REMARK  154  A    between atoms: _414  and  _415
REMARK  155  A    between atoms: _414  and  _417
REMARK  156  A    between atoms: _417  and  _418
REMARK  157  A    between atoms: _423  and  _424
REMARK  158  A    between atoms: _426  and  _428
REMARK  159  A    between atoms: _428  and  _429
REMARK  160  A    between atoms: _428  and  _431
REMARK  161  A    between atoms: _431  and  _432
REMARK  162  A    between atoms: _437  and  _438
REMARK  163  A    between atoms: _440  and  _442
REMARK  164  A    between atoms: _442  and  _443
REMARK  165  A    between atoms: _442  and  _445
REMARK  166  A    between atoms: _445  and  _446
REMARK  167  A    between atoms: _451  and  _452
REMARK  168  A    between atoms: _454  and  _456
REMARK  169  A    between atoms: _456  and  _457
REMARK  170  A    between atoms: _456  and  _459
REMARK  171  A    between atoms: _459  and  _460
REMARK  172  A    between atoms: _460  and  _461
REMARK  173  A    between atoms: _461  and  _462
REMARK  174  A    between atoms: _471  and  _473
REMARK  175  A    between atoms: _473  and  _474
REMARK  176  A    between atoms: _473  and  _476
REMARK  177  A    between atoms: _476  and  _477
REMARK  178  A    between atoms: _477  and  _478
REMARK  179  A    between atoms: _478  and  _479
REMARK  180  A    between atoms: _488  and  _490
REMARK  181  A    between atoms: _490  and  _491
REMARK  182  A    between atoms: _493  and  _495
REMARK  183  A    between atoms: _495  and  _496
REMARK  184  A    between atoms: _499  and  _501
REMARK  185  A    between atoms: _501  and  _502
REMARK  186  A    between atoms: _501  and  _504
REMARK  187  A    between atoms: _504  and  _505
REMARK  188  A    between atoms: _511  and  _512
REMARK  189  A    between atoms: _517  and  _519
REMARK  190  A    between atoms: _519  and  _520
REMARK  191  A    between atoms: _522  and  _524
REMARK  192  A    between atoms: _524  and  _525
REMARK  193  A    between atoms: _524  and  _527
REMARK  194  A    between atoms: _527  and  _528
REMARK  195  A    between atoms: _534  and  _536
REMARK  196  A    between atoms: _536  and  _537
REMARK  197  A    between atoms: _536  and  _539
REMARK  198  A    between atoms: _539  and  _540
REMARK  199  A    between atoms: _545  and  _547
REMARK  200  A    between atoms: _547  and  _548
REMARK  201  A    between atoms: _547  and  _550
REMARK  202  A    between atoms: _550  and  _551
REMARK  203  A    between atoms: _551  and  _552
REMARK  204  A    between atoms: _552  and  _553
REMARK  205  A    between atoms: _553  and  ZN_801
REMARK  206  A    between atoms: _555  and  _557
REMARK  207  A    between atoms: _557  and  _558
REMARK  208  A    between atoms: _561  and  _563
REMARK  209  A    between atoms: _563  and  _564
REMARK  210  A    between atoms: _566  and  _568
REMARK  211  A    between atoms: _568  and  _569
REMARK  212  A    between atoms: _568  and  _571
REMARK  213  A    between atoms: _571  and  _572
REMARK  214  A    between atoms: _575  and  _577
REMARK  215  A    between atoms: _577  and  _578
REMARK  216  A    between atoms: _581  and  _583
REMARK  217  A    between atoms: _583  and  _584
REMARK  218  A    between atoms: _583  and  _586
REMARK  219  A    between atoms: _586  and  _587
REMARK  220  A    between atoms: _587  and  _588
REMARK  221  A    between atoms: _591  and  _593
REMARK  222  A    between atoms: _593  and  _594
REMARK  223  A    between atoms: _593  and  _596
REMARK  224  A    between atoms: _596  and  _597
REMARK  225  A    between atoms: _597  and  _598
REMARK  226  A    between atoms: _598  and  _599
REMARK  227  A    between atoms: _599  and  _600
REMARK  228  A    between atoms: _604  and  _606
REMARK  229  A    between atoms: _606  and  _607
REMARK  230  A    between atoms: _606  and  _609
REMARK  231  A    between atoms: _609  and  _610
REMARK  232  A    between atoms: _616  and  _618
REMARK  233  A    between atoms: _618  and  _619
REMARK  234  A    between atoms: _618  and  _621
REMARK  235  A    between atoms: _621  and  _622
REMARK  236  A    between atoms: _628  and  _630
REMARK  237  A    between atoms: _630  and  _631
REMARK  238  A    between atoms: _633  and  _635
REMARK  239  A    between atoms: _635  and  _636
REMARK  240  A    between atoms: _635  and  _638
REMARK  241  A    between atoms: _641  and  _643
REMARK  242  A    between atoms: _643  and  _644
REMARK  243  A    between atoms: _643  and  _646
REMARK  244  A    between atoms: _646  and  _647
REMARK  245  A    between atoms: _647  and  _648
REMARK  246  A    between atoms: _648  and  _649
REMARK  247  A    between atoms: _649  and  _650
REMARK  248  A    between atoms: _654  and  _656
REMARK  249  A    between atoms: _656  and  _657
REMARK  250  A    between atoms: _656  and  _659
REMARK  251  A    between atoms: _659  and  _660
REMARK  252  A    between atoms: _666  and  _668
REMARK  253  A    between atoms: _668  and  _669
REMARK  254  A    between atoms: _668  and  _671
REMARK  255  A    between atoms: _671  and  _672
REMARK  256  A    between atoms: _677  and  _679
REMARK  257  A    between atoms: _679  and  _680
REMARK  258  A    between atoms: _679  and  _682
REMARK  259  A    between atoms: _682  and  _683
REMARK  260  A    between atoms: _688  and  _690
REMARK  261  A    between atoms: _690  and  _691
REMARK  262  A    between atoms: _690  and  _693
REMARK  263  A    between atoms: _696  and  _698
REMARK  264  A    between atoms: _698  and  _699
REMARK  265  A    between atoms: _698  and  _701
REMARK  266  A    between atoms: _701  and  _702
REMARK  267  A    between atoms: _706  and  _707
REMARK  268  A    between atoms: _712  and  _714
REMARK  269  A    between atoms: _714  and  _715
REMARK  270  A    between atoms: _714  and  _717
REMARK  271  A    between atoms: _717  and  _718
REMARK  272  A    between atoms: _723  and  _724
REMARK  273  A    between atoms: _726  and  _728
REMARK  274  A    between atoms: _728  and  _729
REMARK  275  A    between atoms: _728  and  _731
REMARK  276  A    between atoms: _731  and  _732
REMARK  277  A    between atoms: _732  and  _733
REMARK  278  A    between atoms: _733  and  _734
REMARK  279  A    between atoms: _743  and  _745
REMARK  280  A    between atoms: _745  and  _746
REMARK  281  A    between atoms: _745  and  _748
REMARK  282  A    between atoms: _748  and  _749
REMARK  283  A    between atoms: _754  and  _755
REMARK  284  A    between atoms: _757  and  _759
REMARK  285  A    between atoms: _759  and  _760
REMARK  286  A    between atoms: _759  and  _762
REMARK  287  A    between atoms: _762  and  _763
REMARK  288  A    between atoms: _769  and  _771
REMARK  289  A    between atoms: _771  and  _772
REMARK  290  A    between atoms: _771  and  _774
REMARK  291  A    between atoms: _774  and  _775
REMARK  292  A    between atoms: _777  and  _779
REMARK  293  A    between atoms: _779  and  _780
REMARK  294  A    between atoms: _779  and  _782
REMARK  295  A    between atoms: _782  and  _783
REMARK  296  A    between atoms: _789  and  _791
REMARK  297  A    between atoms: _791  and  _792
REMARK  298  A    between atoms: _791  and  _794
REMARK  299  A    between atoms: _794  and  _795
REMARK  300  A    between atoms: _795  and  _796
REMARK                            x       y       z     vdW  Elec       q    Type
REMARK                         _______ _______ _______ _____ _____    ______ ____
ROOT
ATOM      1  C   GLU A   1      13.908 -15.144 -16.864  0.00  0.00    +0.238 C 
ATOM      2  N   LYS A   2      14.360 -15.863 -15.838  0.00  0.00    -0.298 N 
ATOM      3  H   LYS A   2      15.379 -16.058 -15.761  0.00  0.00    +0.150 HD
ATOM      4  O   GLU A   1      12.775 -14.687 -16.888  0.00  0.00    -0.274 OA
ENDROOT
BRANCH   1   5
ATOM      5  CA  GLU A   1      14.868 -14.891 -18.036  0.00  0.00    +0.145 C 
BRANCH   5   6
ATOM      6  N   GLU A   1      16.173 -14.472 -17.576  0.00  0.00    -0.238 NA
ATOM      7  H   GLU A   1      16.935 -15.177 -17.513  0.00  0.00    +0.142 HD
ENDBRANCH   5   6
BRANCH   5   8
ATOM      8  CB  GLU A   1      15.035 -16.147 -18.900  0.00  0.00    +0.038 C 
BRANCH   8   9
ATOM      9  CG  GLU A   1      13.833 -16.559 -19.707  0.00  0.00    +0.116 C 
BRANCH   9  10
ATOM     10  CD  GLU A   1      14.079 -17.877 -20.447  0.00  0.00    +0.365 C 
ATOM     11  OE2 GLU A   1      13.119 -18.667 -20.594  0.00  0.00    -0.246 OA
ATOM     12  OE1 GLU A   1      15.238 -18.123 -20.869  0.00  0.00    -0.246 OA
ENDBRANCH   9  10
ENDBRANCH   8   9
ENDBRANCH   5   8
ENDBRANCH   1   5
BRANCH   2  13
ATOM     13  CA  LYS A   2      13.448 -16.384 -14.815  0.00  0.00    +0.137 C 
BRANCH  13  14
ATOM     14  C   LYS A   2      13.397 -15.557 -13.528  0.00  0.00    +0.227 C 
ATOM     15  O   LYS A   2      12.306 -15.280 -13.021  0.00  0.00    -0.286 OA
ENDBRANCH  13  14
BRANCH  13  16
ATOM     16  CB  LYS A   2      13.756 -17.853 -14.505  0.00  0.00    +0.028 C 
BRANCH  16  17
ATOM     17  CG  LYS A   2      13.726 -18.801 -15.718  0.00  0.00    -0.000 C 
BRANCH  17  18
ATOM     18  CD  LYS A   2      12.312 -19.040 -16.215  0.00  0.00    -0.024 C 
BRANCH  18  19
ATOM     19  CE  LYS A   2      12.282 -20.024 -17.385  0.00  0.00    -0.086 C 
BRANCH  19  20
ATOM     20  NZ  LYS A   2      10.878 -20.241 -17.866  0.00  0.00    +0.380 N 
ATOM     21  HZ1 LYS A   2      10.303 -20.626 -17.090  0.00  0.00    -0.089 HD
ATOM     22  HZ2 LYS A   2      10.477 -19.335 -18.180  0.00  0.00    -0.089 HD
ATOM     23  HZ3 LYS A   2      10.885 -20.913 -18.660  0.00  0.00    -0.089 HD
ENDBRANCH  19  20
ENDBRANCH  18  19
ENDBRANCH  17  18
ENDBRANCH  16  17
ENDBRANCH  13  16
ENDBRANCH   2  13
TORSDOF 12
REMARK  Name = ../refined-set-2016/2xyd/2xyd_pocket.pdb
REMARK  300 active torsions:
REMARK  status: ('A' for Active; 'I' for Inactive)
REMARK    1  A    between atoms: _1  and  _3
REMARK    2  A    between atoms: _3  and  _4
REMARK    3  A    between atoms: _3  and  _6
REMARK    4  A    between atoms: _6  and  _7
REMARK    5  A    between atoms: _10  and  _12
REMARK    6  A    between atoms: _12  and  _13
REMARK    7  A    between atoms: _12  and  _15
REMARK    8  A    between atoms: _15  and  _16
REMARK    9  A    between atoms: _21  and  _22
REMARK   10  A    between atoms: _24  and  _26
REMARK   11  A    between atoms: _26  and  _27
REMARK   12  A    between atoms: _26  and  _29
REMARK   13  A    between atoms: _29  and  _30
REMARK   14  A    between atoms: _35  and  _36
REMARK   15  A    between atoms: _38  and  _40
REMARK   16  A    between atoms: _40  and  _41
REMARK   17  A    between atoms: _40  and  _43
REMARK   18  A    between atoms: _43  and  _44
REMARK   19  A    between atoms: _47  and  _49
REMARK   20  A    between atoms: _49  and  _50
REMARK   21  A    between atoms: _49  and  _52
REMARK   22  A    between atoms: _52  and  _53
REMARK   23  A    between atoms: _63  and  _65
REMARK   24  A    between atoms: _65  and  _66
REMARK   25  A    between atoms: _65  and  _68
REMARK   26  A    between atoms: _68  and  _69
REMARK   27  A    between atoms: _69  and  _70
REMARK   28  A    between atoms: _75  and  _77
REMARK   29  A    between atoms: _77  and  _78
REMARK   30  A    between atoms: _77  and  _80
REMARK   31  A    between atoms: _80  and  _81
REMARK   32  A    between atoms: _83  and  _85
REMARK   33  A    between atoms: _85  and  _86
REMARK   34  A    between atoms: _85  and  _88
REMARK   35  A    between atoms: _88  and  _89
REMARK   36  A    between atoms: _99  and  _101
REMARK   37  A    between atoms: _101  and  _102
REMARK   38  A    between atoms: _101  and  _104
REMARK   39  A    between atoms: _104  and  _105
REMARK   40  A    between atoms: _105  and  _106
REMARK   41  A    between atoms: _109  and  _111
REMARK   42  A    between atoms: _111  and  _112
REMARK   43  A    between atoms: _111  and  _114
REMARK   44  A    between atoms: _114  and  _115
REMARK   45  A    between atoms: _120  and  _122
REMARK   46  A    between atoms: _122  and  _123
REMARK   47  A    between atoms: _122  and  _125
REMARK   48  A    between atoms: _128  and  _130
REMARK   49  A    between atoms: _130  and  _131
REMARK   50  A    between atoms: _130  and  _133
REMARK   51  A    between atoms: _135  and  _137
REMARK   52  A    between atoms: _137  and  _138
REMARK   53  A    between atoms: _137  and  _140
REMARK   54  A    between atoms: _140  and  _141
REMARK   55  A    between atoms: _146  and  _148
REMARK   56  A    between atoms: _148  and  _149
REMARK   57  A    between atoms: _152  and  _154
REMARK   58  A    between atoms: _154  and  _155
REMARK   59  A    between atoms: _154  and  _157
REMARK   60  A    between atoms: _157  and  _158
REMARK   61  A    between atoms: _160  and  _162
REMARK   62  A    between atoms: _162  and  _163
REMARK   63  A    between atoms: _166  and  _168
REMARK   64  A    between atoms: _168  and  _169
REMARK   65  A    between atoms: _168  and  _171
REMARK   66  A    between atoms: _171  and  _172
REMARK   67  A    between atoms: _182  and  _184
REMARK   68  A    between atoms: _184  and  _185
REMARK   69  A    between atoms: _184  and  _187
REMARK   70  A    between atoms: _187  and  _188
REMARK   71  A    between atoms: _191  and  _193
REMARK   72  A    between atoms: _193  and  _194
REMARK   73  A    between atoms: _193  and  _196
REMARK   74  A    between atoms: _196  and  _197
REMARK   75  A    between atoms: _202  and  _203
REMARK   76  A    between atoms: _205  and  _207
REMARK   77  A    between atoms: _207  and  _208
REMARK   78  A    between atoms: _207  and  _210
REMARK   79  A    between atoms: _210  and  _211
REMARK   80  A    between atoms: _211  and  _212
REMARK   81  A    between atoms: _212  and  _213
REMARK   82  A    between atoms: _222  and  _224
REMARK   83  A    between atoms: _224  and  _225
REMARK   84  A    between atoms: _224  and  _227
REMARK   85  A    between atoms: _227  and  _228
REMARK   86  A    between atoms: _231  and  _233
REMARK   87  A    between atoms: _233  and  _234
REMARK   88  A    between atoms: _233  and  _236
REMARK   89  A    between atoms: _236  and  _237
REMARK   90  A    between atoms: _237  and  _238
REMARK   91  A    between atoms: _238  and  _239
REMARK   92  A    between atoms: _239  and  _240
REMARK   93  A    between atoms: _244  and  _246
REMARK   94  A    between atoms: _246  and  _247
REMARK   95  A    between atoms: _246  and  _249
REMARK   96  A    between atoms: _249  and  _250
REMARK   97  A    between atoms: _250  and  _251
REMARK   98  A    between atoms: _256  and  _258
REMARK   99  A    between atoms: _258  and  _259
REMARK  100  A    between atoms: _258  and  _261
REMARK  101  A    between atoms: _261  and  _262
REMARK  102  A    between atoms: _262  and  _263
REMARK  103  A    between atoms: _263  and  _264
REMARK  104  A    between atoms: _273  and  _275
REMARK  105  A    between atoms: _275  and  _276
REMARK  106  A    between atoms: _275  and  _278
REMARK  107  A    between atoms: _278  and  _279
REMARK  108  A    between atoms: _282  and  _284
REMARK  109  A    between atoms: _284  and  _285
REMARK  110  A    between atoms: _284  and  _287
REMARK  111  A    between atoms: _287  and  _288
REMARK  112  A    between atoms: _288  and  _289
REMARK  113  A    between atoms: _291  and  _293
REMARK  114  A    between atoms: _293  and  _294
REMARK  115  A    between atoms: _293  and  _296
REMARK  116  A    between atoms: _296  and  _297
REMARK  117  A    between atoms: _300  and  _302
REMARK  118  A    between atoms: _302  and  _303
REMARK  119  A    between atoms: _302  and  _305
REMARK  120  A    between atoms: _305  and  _306
REMARK  121  A    between atoms: _306  and  _307
REMARK  122  A    between atoms: _312  and  _314
REMARK  123  A    between atoms: _314  and  _315
REMARK  124  A    between atoms: _314  and  _317
REMARK  125  A    between atoms: _317  and  _318
REMARK  126  A    between atoms: _321  and  _323
REMARK  127  A    between atoms: _323  and  _324
REMARK  128  A    between atoms: _323  and  _326
REMARK  129  A    between atoms: _326  and  _327
REMARK  130  A    between atoms: _329  and  _331
REMARK  131  A    between atoms: _331  and  _332
REMARK  132  A    between atoms: _331  and  _334
REMARK  133  A    between atoms: _334  and  _335
REMARK  134  A    between atoms: _338  and  _340
REMARK  135  A    between atoms: _340  and  _341
REMARK  136  A    between atoms: _340  and  _343
REMARK  137  A    between atoms: _346  and  _348
REMARK  138  A    between atoms: _348  and  _349
REMARK  139  A    between atoms: _348  and  _351
REMARK  140  A    between atoms: _351  and  _352
REMARK  141  A    between atoms: _357  and  _359
REMARK  142  A    between atoms: _370  and  _373
REMARK  143  A    between atoms: _373  and  _374
REMARK  144  A    between atoms: _374  and  _375
REMARK  145  A    between atoms: _380  and  _383
REMARK  146  A    between atoms: _383  and  _384
REMARK  147  A    between atoms: _384  and  _385
REMARK  148  A    between atoms: _394  and  _395
REMARK  149  A    between atoms: _403  and  _405
REMARK  150  A    between atoms: _405  and  _406
REMARK  151  A    between atoms: _405  and  _408
REMARK  152  A    between atoms: _408  and  _409
REMARK  153  A    between atoms: _412  and  _414
REMARK  154  A    between atoms: _414  and  _415
REMARK  155  A    between atoms: _414  and  _417
REMARK  156  A    between atoms: _417  and  _418
REMARK  157  A    between atoms: _423  and  _424
REMARK  158  A    between atoms: _426  and  _428
REMARK  159  A    between atoms: _428  and  _429
REMARK  160  A    between atoms: _428  and  _431
REMARK  161  A    between atoms: _431  and  _432
REMARK  162  A    between atoms: _437  and  _438
REMARK  163  A    between atoms: _440  and  _442
REMARK  164  A    between atoms: _442  and  _443
REMARK  165  A    between atoms: _442  and  _445
REMARK  166  A    between atoms: _445  and  _446
REMARK  167  A    between atoms: _451  and  _452
REMARK  168  A    between atoms: _454  and  _456
REMARK  169  A    between atoms: _456  and  _457
REMARK  170  A    between atoms: _456  and  _459
REMARK  171  A    between atoms: _459  and  _460
REMARK  172  A    between atoms: _460  and  _461
REMARK  173  A    between atoms: _461  and  _462
REMARK  174  A    between atoms: _471  and  _473
REMARK  175  A    between atoms: _473  and  _474
REMARK  176  A    between atoms: _473  and  _476
REMARK  177  A    between atoms: _476  and  _477
REMARK  178  A    between atoms: _477  and  _478
REMARK  179  A    between atoms: _478  and  _479
REMARK  180  A    between atoms: _488  and  _490
REMARK  181  A    between atoms: _490  and  _491
REMARK  182  A    between atoms: _493  and  _495
REMARK  183  A    between atoms: _495  and  _496
REMARK  184  A    between atoms: _499  and  _501
REMARK  185  A    between atoms: _501  and  _502
REMARK  186  A    between atoms: _501  and  _504
REMARK  187  A    between atoms: _504  and  _505
REMARK  188  A    between atoms: _511  and  _512
REMARK  189  A    between atoms: _517  and  _519
REMARK  190  A    between atoms: _519  and  _520
REMARK  191  A    between atoms: _522  and  _524
REMARK  192  A    between atoms: _524  and  _525
REMARK  193  A    between atoms: _524  and  _527
REMARK  194  A    between atoms: _527  and  _528
REMARK  195  A    between atoms: _534  and  _536
REMARK  196  A    between atoms: _536  and  _537
REMARK  197  A    between atoms: _536  and  _539
REMARK  198  A    between atoms: _539  and  _540
REMARK  199  A    between atoms: _545  and  _547
REMARK  200  A    between atoms: _547  and  _548
REMARK  201  A    between atoms: _547  and  _550
REMARK  202  A    between atoms: _550  and  _551
REMARK  203  A    between atoms: _551  and  _552
REMARK  204  A    between atoms: _552  and  _553
REMARK  205  A    between atoms: _553  and  ZN_801
REMARK  206  A    between atoms: _555  and  _557
REMARK  207  A    between atoms: _557  and  _558
REMARK  208  A    between atoms: _561  and  _563
REMARK  209  A    between atoms: _563  and  _564
REMARK  210  A    between atoms: _566  and  _568
REMARK  211  A    between atoms: _568  and  _569
REMARK  212  A    between atoms: _568  and  _571
REMARK  213  A    between atoms: _571  and  _572
REMARK  214  A    between atoms: _575  and  _577
REMARK  215  A    between atoms: _577  and  _578
REMARK  216  A    between atoms: _581  and  _583
REMARK  217  A    between atoms: _583  and  _584
REMARK  218  A    between atoms: _583  and  _586
REMARK  219  A    between atoms: _586  and  _587
REMARK  220  A    between atoms: _587  and  _588
REMARK  221  A    between atoms: _591  and  _593
REMARK  222  A    between atoms: _593  and  _594
REMARK  223  A    between atoms: _593  and  _596
REMARK  224  A    between atoms: _596  and  _597
REMARK  225  A    between atoms: _597  and  _598
REMARK  226  A    between atoms: _598  and  _599
REMARK  227  A    between atoms: _599  and  _600
REMARK  228  A    between atoms: _604  and  _606
REMARK  229  A    between atoms: _606  and  _607
REMARK  230  A    between atoms: _606  and  _609
REMARK  231  A    between atoms: _609  and  _610
REMARK  232  A    between atoms: _616  and  _618
REMARK  233  A    between atoms: _618  and  _619
REMARK  234  A    between atoms: _618  and  _621
REMARK  235  A    between atoms: _621  and  _622
REMARK  236  A    between atoms: _628  and  _630
REMARK  237  A    between atoms: _630  and  _631
REMARK  238  A    between atoms: _633  and  _635
REMARK  239  A    between atoms: _635  and  _636
REMARK  240  A    between atoms: _635  and  _638
REMARK  241  A    between atoms: _641  and  _643
REMARK  242  A    between atoms: _643  and  _644
REMARK  243  A    between atoms: _643  and  _646
REMARK  244  A    between atoms: _646  and  _647
REMARK  245  A    between atoms: _647  and  _648
REMARK  246  A    between atoms: _648  and  _649
REMARK  247  A    between atoms: _649  and  _650
REMARK  248  A    between atoms: _654  and  _656
REMARK  249  A    between atoms: _656  and  _657
REMARK  250  A    between atoms: _656  and  _659
REMARK  251  A    between atoms: _659  and  _660
REMARK  252  A    between atoms: _666  and  _668
REMARK  253  A    between atoms: _668  and  _669
REMARK  254  A    between atoms: _668  and  _671
REMARK  255  A    between atoms: _671  and  _672
REMARK  256  A    between atoms: _677  and  _679
REMARK  257  A    between atoms: _679  and  _680
REMARK  258  A    between atoms: _679  and  _682
REMARK  259  A    between atoms: _682  and  _683
REMARK  260  A    between atoms: _688  and  _690
REMARK  261  A    between atoms: _690  and  _691
REMARK  262  A    between atoms: _690  and  _693
REMARK  263  A    between atoms: _696  and  _698
REMARK  264  A    between atoms: _698  and  _699
REMARK  265  A    between atoms: _698  and  _701
REMARK  266  A    between atoms: _701  and  _702
REMARK  267  A    between atoms: _706  and  _707
REMARK  268  A    between atoms: _712  and  _714
REMARK  269  A    between atoms: _714  and  _715
REMARK  270  A    between atoms: _714  and  _717
REMARK  271  A    between atoms: _717  and  _718
REMARK  272  A    between atoms: _723  and  _724
REMARK  273  A    between atoms: _726  and  _728
REMARK  274  A    between atoms: _728  and  _729
REMARK  275  A    between atoms: _728  and  _731
REMARK  276  A    between atoms: _731  and  _732
REMARK  277  A    between atoms: _732  and  _733
REMARK  278  A    between atoms: _733  and  _734
REMARK  279  A    between atoms: _743  and  _745
REMARK  280  A    between atoms: _745  and  _746
REMARK  281  A    between atoms: _745  and  _748
REMARK  282  A    between atoms: _748  and  _749
REMARK  283  A    between atoms: _754  and  _755
REMARK  284  A    between atoms: _757  and  _759
REMARK  285  A    between atoms: _759  and  _760
REMARK  286  A    between atoms: _759  and  _762
REMARK  287  A    between atoms: _762  and  _763
REMARK  288  A    between atoms: _769  and  _771
REMARK  289  A    between atoms: _771  and  _772
REMARK  290  A    between atoms: _771  and  _774
REMARK  291  A    between atoms: _774  and  _775
REMARK  292  A    between atoms: _777  and  _779
REMARK  293  A    between atoms: _779  and  _780
REMARK  294  A    between atoms: _779  and  _782
REMARK  295  A    between atoms: _782  and  _783
REMARK  296  A    between atoms: _789  and  _791
REMARK  297  A    between atoms: _791  and  _792
REMARK  298  A    between atoms: _791  and  _794
REMARK  299  A    between atoms: _794  and  _795
REMARK  300  A    between atoms: _795  and  _796
REMARK                            x       y       z     vdW  Elec       q    Type
REMARK                         _______ _______ _______ _____ _____    ______ ____
ROOT
ATOM      1  CB  PHE A   1      10.028 -12.957 -15.043  0.00  0.00    +0.051 C 
ENDROOT
BRANCH   1   2
ATOM      2  CG  PHE A   1       8.532 -12.995 -15.225  0.00  0.00    -0.020 A 
ATOM      3  CD2 PHE A   1       7.746 -13.804 -14.417  0.00  0.00    -0.004 A 
ATOM      4  CE2 PHE A   1       6.361 -13.857 -14.587  0.00  0.00    -0.000 A 
ATOM      5  CZ  PHE A   1       5.757 -13.073 -15.564  0.00  0.00    -0.000 A 
ATOM      6  CE1 PHE A   1       6.534 -12.252 -16.375  0.00  0.00    -0.000 A 
ATOM      7  CD1 PHE A   1       7.914 -12.219 -16.208  0.00  0.00    -0.004 A 
ENDBRANCH   1   2
BRANCH   1   8
ATOM      8  CA  PHE A   1      10.520 -11.791 -14.176  0.00  0.00    +0.137 C 
BRANCH   8   9
ATOM      9  N   PHE A   1      11.992 -11.819 -14.083  0.00  0.00    -0.239 NA
ATOM     10  H   PHE A   1      12.499 -12.667 -14.408  0.00  0.00    +0.142 HD
ENDBRANCH   8   9
BRANCH   8  11
ATOM     11  C   PHE A   1       9.771 -11.822 -12.832  0.00  0.00    +0.224 C 
ATOM     12  O   PHE A   1       8.665 -11.290 -12.733  0.00  0.00    -0.287 OA
ENDBRANCH   8  11
ENDBRANCH   1   8
TORSDOF 4
REMARK  Name = ../refined-set-2016/2xyd/2xyd_pocket.pdb
REMARK  300 active torsions:
REMARK  status: ('A' for Active; 'I' for Inactive)
REMARK    1  A    between atoms: _1  and  _3
REMARK    2  A    between atoms: _3  and  _4
REMARK    3  A    between atoms: _3  and  _6
REMARK    4  A    between atoms: _6  and  _7
REMARK    5  A    between atoms: _10  and  _12
REMARK    6  A    between atoms: _12  and  _13
REMARK    7  A    between atoms: _12  and  _15
REMARK    8  A    between atoms: _15  and  _16
REMARK    9  A    between atoms: _21  and  _22
REMARK   10  A    between atoms: _24  and  _26
REMARK   11  A    between atoms: _26  and  _27
REMARK   12  A    between atoms: _26  and  _29
REMARK   13  A    between atoms: _29  and  _30
REMARK   14  A    between atoms: _35  and  _36
REMARK   15  A    between atoms: _38  and  _40
REMARK   16  A    between atoms: _40  and  _41
REMARK   17  A    between atoms: _40  and  _43
REMARK   18  A    between atoms: _43  and  _44
REMARK   19  A    between atoms: _47  and  _49
REMARK   20  A    between atoms: _49  and  _50
REMARK   21  A    between atoms: _49  and  _52
REMARK   22  A    between atoms: _52  and  _53
REMARK   23  A    between atoms: _63  and  _65
REMARK   24  A    between atoms: _65  and  _66
REMARK   25  A    between atoms: _65  and  _68
REMARK   26  A    between atoms: _68  and  _69
REMARK   27  A    between atoms: _69  and  _70
REMARK   28  A    between atoms: _75  and  _77
REMARK   29  A    between atoms: _77  and  _78
REMARK   30  A    between atoms: _77  and  _80
REMARK   31  A    between atoms: _80  and  _81
REMARK   32  A    between atoms: _83  and  _85
REMARK   33  A    between atoms: _85  and  _86
REMARK   34  A    between atoms: _85  and  _88
REMARK   35  A    between atoms: _88  and  _89
REMARK   36  A    between atoms: _99  and  _101
REMARK   37  A    between atoms: _101  and  _102
REMARK   38  A    between atoms: _101  and  _104
REMARK   39  A    between atoms: _104  and  _105
REMARK   40  A    between atoms: _105  and  _106
REMARK   41  A    between atoms: _109  and  _111
REMARK   42  A    between atoms: _111  and  _112
REMARK   43  A    between atoms: _111  and  _114
REMARK   44  A    between atoms: _114  and  _115
REMARK   45  A    between atoms: _120  and  _122
REMARK   46  A    between atoms: _122  and  _123
REMARK   47  A    between atoms: _122  and  _125
REMARK   48  A    between atoms: _128  and  _130
REMARK   49  A    between atoms: _130  and  _131
REMARK   50  A    between atoms: _130  and  _133
REMARK   51  A    between atoms: _135  and  _137
REMARK   52  A    between atoms: _137  and  _138
REMARK   53  A    between atoms: _137  and  _140
REMARK   54  A    between atoms: _140  and  _141
REMARK   55  A    between atoms: _146  and  _148
REMARK   56  A    between atoms: _148  and  _149
REMARK   57  A    between atoms: _152  and  _154
REMARK   58  A    between atoms: _154  and  _155
REMARK   59  A    between atoms: _154  and  _157
REMARK   60  A    between atoms: _157  and  _158
REMARK   61  A    between atoms: _160  and  _162
REMARK   62  A    between atoms: _162  and  _163
REMARK   63  A    between atoms: _166  and  _168
REMARK   64  A    between atoms: _168  and  _169
REMARK   65  A    between atoms: _168  and  _171
REMARK   66  A    between atoms: _171  and  _172
REMARK   67  A    between atoms: _182  and  _184
REMARK   68  A    between atoms: _184  and  _185
REMARK   69  A    between atoms: _184  and  _187
REMARK   70  A    between atoms: _187  and  _188
REMARK   71  A    between atoms: _191  and  _193
REMARK   72  A    between atoms: _193  and  _194
REMARK   73  A    between atoms: _193  and  _196
REMARK   74  A    between atoms: _196  and  _197
REMARK   75  A    between atoms: _202  and  _203
REMARK   76  A    between atoms: _205  and  _207
REMARK   77  A    between atoms: _207  and  _208
REMARK   78  A    between atoms: _207  and  _210
REMARK   79  A    between atoms: _210  and  _211
REMARK   80  A    between atoms: _211  and  _212
REMARK   81  A    between atoms: _212  and  _213
REMARK   82  A    between atoms: _222  and  _224
REMARK   83  A    between atoms: _224  and  _225
REMARK   84  A    between atoms: _224  and  _227
REMARK   85  A    between atoms: _227  and  _228
REMARK   86  A    between atoms: _231  and  _233
REMARK   87  A    between atoms: _233  and  _234
REMARK   88  A    between atoms: _233  and  _236
REMARK   89  A    between atoms: _236  and  _237
REMARK   90  A    between atoms: _237  and  _238
REMARK   91  A    between atoms: _238  and  _239
REMARK   92  A    between atoms: _239  and  _240
REMARK   93  A    between atoms: _244  and  _246
REMARK   94  A    between atoms: _246  and  _247
REMARK   95  A    between atoms: _246  and  _249
REMARK   96  A    between atoms: _249  and  _250
REMARK   97  A    between atoms: _250  and  _251
REMARK   98  A    between atoms: _256  and  _258
REMARK   99  A    between atoms: _258  and  _259
REMARK  100  A    between atoms: _258  and  _261
REMARK  101  A    between atoms: _261  and  _262
REMARK  102  A    between atoms: _262  and  _263
REMARK  103  A    between atoms: _263  and  _264
REMARK  104  A    between atoms: _273  and  _275
REMARK  105  A    between atoms: _275  and  _276
REMARK  106  A    between atoms: _275  and  _278
REMARK  107  A    between atoms: _278  and  _279
REMARK  108  A    between atoms: _282  and  _284
REMARK  109  A    between atoms: _284  and  _285
REMARK  110  A    between atoms: _284  and  _287
REMARK  111  A    between atoms: _287  and  _288
REMARK  112  A    between atoms: _288  and  _289
REMARK  113  A    between atoms: _291  and  _293
REMARK  114  A    between atoms: _293  and  _294
REMARK  115  A    between atoms: _293  and  _296
REMARK  116  A    between atoms: _296  and  _297
REMARK  117  A    between atoms: _300  and  _302
REMARK  118  A    between atoms: _302  and  _303
REMARK  119  A    between atoms: _302  and  _305
REMARK  120  A    between atoms: _305  and  _306
REMARK  121  A    between atoms: _306  and  _307
REMARK  122  A    between atoms: _312  and  _314
REMARK  123  A    between atoms: _314  and  _315
REMARK  124  A    between atoms: _314  and  _317
REMARK  125  A    between atoms: _317  and  _318
REMARK  126  A    between atoms: _321  and  _323
REMARK  127  A    between atoms: _323  and  _324
REMARK  128  A    between atoms: _323  and  _326
REMARK  129  A    between atoms: _326  and  _327
REMARK  130  A    between atoms: _329  and  _331
REMARK  131  A    between atoms: _331  and  _332
REMARK  132  A    between atoms: _331  and  _334
REMARK  133  A    between atoms: _334  and  _335
REMARK  134  A    between atoms: _338  and  _340
REMARK  135  A    between atoms: _340  and  _341
REMARK  136  A    between atoms: _340  and  _343
REMARK  137  A    between atoms: _346  and  _348
REMARK  138  A    between atoms: _348  and  _349
REMARK  139  A    between atoms: _348  and  _351
REMARK  140  A    between atoms: _351  and  _352
REMARK  141  A    between atoms: _357  and  _359
REMARK  142  A    between atoms: _370  and  _373
REMARK  143  A    between atoms: _373  and  _374
REMARK  144  A    between atoms: _374  and  _375
REMARK  145  A    between atoms: _380  and  _383
REMARK  146  A    between atoms: _383  and  _384
REMARK  147  A    between atoms: _384  and  _385
REMARK  148  A    between atoms: _394  and  _395
REMARK  149  A    between atoms: _403  and  _405
REMARK  150  A    between atoms: _405  and  _406
REMARK  151  A    between atoms: _405  and  _408
REMARK  152  A    between atoms: _408  and  _409
REMARK  153  A    between atoms: _412  and  _414
REMARK  154  A    between atoms: _414  and  _415
REMARK  155  A    between atoms: _414  and  _417
REMARK  156  A    between atoms: _417  and  _418
REMARK  157  A    between atoms: _423  and  _424
REMARK  158  A    between atoms: _426  and  _428
REMARK  159  A    between atoms: _428  and  _429
REMARK  160  A    between atoms: _428  and  _431
REMARK  161  A    between atoms: _431  and  _432
REMARK  162  A    between atoms: _437  and  _438
REMARK  163  A    between atoms: _440  and  _442
REMARK  164  A    between atoms: _442  and  _443
REMARK  165  A    between atoms: _442  and  _445
REMARK  166  A    between atoms: _445  and  _446
REMARK  167  A    between atoms: _451  and  _452
REMARK  168  A    between atoms: _454  and  _456
REMARK  169  A    between atoms: _456  and  _457
REMARK  170  A    between atoms: _456  and  _459
REMARK  171  A    between atoms: _459  and  _460
REMARK  172  A    between atoms: _460  and  _461
REMARK  173  A    between atoms: _461  and  _462
REMARK  174  A    between atoms: _471  and  _473
REMARK  175  A    between atoms: _473  and  _474
REMARK  176  A    between atoms: _473  and  _476
REMARK  177  A    between atoms: _476  and  _477
REMARK  178  A    between atoms: _477  and  _478
REMARK  179  A    between atoms: _478  and  _479
REMARK  180  A    between atoms: _488  and  _490
REMARK  181  A    between atoms: _490  and  _491
REMARK  182  A    between atoms: _493  and  _495
REMARK  183  A    between atoms: _495  and  _496
REMARK  184  A    between atoms: _499  and  _501
REMARK  185  A    between atoms: _501  and  _502
REMARK  186  A    between atoms: _501  and  _504
REMARK  187  A    between atoms: _504  and  _505
REMARK  188  A    between atoms: _511  and  _512
REMARK  189  A    between atoms: _517  and  _519
REMARK  190  A    between atoms: _519  and  _520
REMARK  191  A    between atoms: _522  and  _524
REMARK  192  A    between atoms: _524  and  _525
REMARK  193  A    between atoms: _524  and  _527
REMARK  194  A    between atoms: _527  and  _528
REMARK  195  A    between atoms: _534  and  _536
REMARK  196  A    between atoms: _536  and  _537
REMARK  197  A    between atoms: _536  and  _539
REMARK  198  A    between atoms: _539  and  _540
REMARK  199  A    between atoms: _545  and  _547
REMARK  200  A    between atoms: _547  and  _548
REMARK  201  A    between atoms: _547  and  _550
REMARK  202  A    between atoms: _550  and  _551
REMARK  203  A    between atoms: _551  and  _552
REMARK  204  A    between atoms: _552  and  _553
REMARK  205  A    between atoms: _553  and  ZN_801
REMARK  206  A    between atoms: _555  and  _557
REMARK  207  A    between atoms: _557  and  _558
REMARK  208  A    between atoms: _561  and  _563
REMARK  209  A    between atoms: _563  and  _564
REMARK  210  A    between atoms: _566  and  _568
REMARK  211  A    between atoms: _568  and  _569
REMARK  212  A    between atoms: _568  and  _571
REMARK  213  A    between atoms: _571  and  _572
REMARK  214  A    between atoms: _575  and  _577
REMARK  215  A    between atoms: _577  and  _578
REMARK  216  A    between atoms: _581  and  _583
REMARK  217  A    between atoms: _583  and  _584
REMARK  218  A    between atoms: _583  and  _586
REMARK  219  A    between atoms: _586  and  _587
REMARK  220  A    between atoms: _587  and  _588
REMARK  221  A    between atoms: _591  and  _593
REMARK  222  A    between atoms: _593  and  _594
REMARK  223  A    between atoms: _593  and  _596
REMARK  224  A    between atoms: _596  and  _597
REMARK  225  A    between atoms: _597  and  _598
REMARK  226  A    between atoms: _598  and  _599
REMARK  227  A    between atoms: _599  and  _600
REMARK  228  A    between atoms: _604  and  _606
REMARK  229  A    between atoms: _606  and  _607
REMARK  230  A    between atoms: _606  and  _609
REMARK  231  A    between atoms: _609  and  _610
REMARK  232  A    between atoms: _616  and  _618
REMARK  233  A    between atoms: _618  and  _619
REMARK  234  A    between atoms: _618  and  _621
REMARK  235  A    between atoms: _621  and  _622
REMARK  236  A    between atoms: _628  and  _630
REMARK  237  A    between atoms: _630  and  _631
REMARK  238  A    between atoms: _633  and  _635
REMARK  239  A    between atoms: _635  and  _636
REMARK  240  A    between atoms: _635  and  _638
REMARK  241  A    between atoms: _641  and  _643
REMARK  242  A    between atoms: _643  and  _644
REMARK  243  A    between atoms: _643  and  _646
REMARK  244  A    between atoms: _646  and  _647
REMARK  245  A    between atoms: _647  and  _648
REMARK  246  A    between atoms: _648  and  _649
REMARK  247  A    between atoms: _649  and  _650
REMARK  248  A    between atoms: _654  and  _656
REMARK  249  A    between atoms: _656  and  _657
REMARK  250  A    between atoms: _656  and  _659
REMARK  251  A    between atoms: _659  and  _660
REMARK  252  A    between atoms: _666  and  _668
REMARK  253  A    between atoms: _668  and  _669
REMARK  254  A    between atoms: _668  and  _671
REMARK  255  A    between atoms: _671  and  _672
REMARK  256  A    between atoms: _677  and  _679
REMARK  257  A    between atoms: _679  and  _680
REMARK  258  A    between atoms: _679  and  _682
REMARK  259  A    between atoms: _682  and  _683
REMARK  260  A    between atoms: _688  and  _690
REMARK  261  A    between atoms: _690  and  _691
REMARK  262  A    between atoms: _690  and  _693
REMARK  263  A    between atoms: _696  and  _698
REMARK  264  A    between atoms: _698  and  _699
REMARK  265  A    between atoms: _698  and  _701
REMARK  266  A    between atoms: _701  and  _702
REMARK  267  A    between atoms: _706  and  _707
REMARK  268  A    between atoms: _712  and  _714
REMARK  269  A    between atoms: _714  and  _715
REMARK  270  A    between atoms: _714  and  _717
REMARK  271  A    between atoms: _717  and  _718
REMARK  272  A    between atoms: _723  and  _724
REMARK  273  A    between atoms: _726  and  _728
REMARK  274  A    between atoms: _728  and  _729
REMARK  275  A    between atoms: _728  and  _731
REMARK  276  A    between atoms: _731  and  _732
REMARK  277  A    between atoms: _732  and  _733
REMARK  278  A    between atoms: _733  and  _734
REMARK  279  A    between atoms: _743  and  _745
REMARK  280  A    between atoms: _745  and  _746
REMARK  281  A    between atoms: _745  and  _748
REMARK  282  A    between atoms: _748  and  _749
REMARK  283  A    between atoms: _754  and  _755
REMARK  284  A    between atoms: _757  and  _759
REMARK  285  A    between atoms: _759  and  _760
REMARK  286  A    between atoms: _759  and  _762
REMARK  287  A    between atoms: _762  and  _763
REMARK  288  A    between atoms: _769  and  _771
REMARK  289  A    between atoms: _771  and  _772
REMARK  290  A    between atoms: _771  and  _774
REMARK  291  A    between atoms: _774  and  _775
REMARK  292  A    between atoms: _777  and  _779
REMARK  293  A    between atoms: _779  and  _780
REMARK  294  A    between atoms: _779  and  _782
REMARK  295  A    between atoms: _782  and  _783
REMARK  296  A    between atoms: _789  and  _791
REMARK  297  A    between atoms: _791  and  _792
REMARK  298  A    between atoms: _791  and  _794
REMARK  299  A    between atoms: _794  and  _795
REMARK  300  A    between atoms: _795  and  _796
REMARK                            x       y       z     vdW  Elec       q    Type
REMARK                         _______ _______ _______ _____ _____    ______ ____
ROOT
ATOM      1  CA  PHE A   1       6.876  -8.311 -12.355  0.00  0.00    +0.149 C 
ENDROOT
BRANCH   1   2
ATOM      2  C   PHE A   1       5.670  -9.245 -12.330  0.00  0.00    +0.239 C 
ATOM      3  O   PHE A   1       4.531  -8.791 -12.257  0.00  0.00    -0.274 OA
ATOM      4  N   GLY A   2       5.931 -10.552 -12.376  0.00  0.00    -0.297 N 
ATOM      5  H   GLY A   2       6.915 -10.867 -12.496  0.00  0.00    +0.150 HD
BRANCH   4   6
ATOM      6  CA  GLY A   2       4.865 -11.560 -12.261  0.00  0.00    +0.163 C 
BRANCH   6   7
ATOM      7  C   GLY A   2       4.072 -11.422 -10.975  0.00  0.00    +0.229 C 
ATOM      8  O   GLY A   2       2.879 -11.776 -10.904  0.00  0.00    -0.286 OA
ENDBRANCH   6   7
ENDBRANCH   4   6
ENDBRANCH   1   2
BRANCH   1   9
ATOM      9  N   PHE A   1       7.909  -8.796 -11.453  0.00  0.00    -0.238 NA
ATOM     10  H   PHE A   1       8.761  -9.245 -11.845  0.00  0.00    +0.142 HD
ENDBRANCH   1   9
BRANCH   1  11
ATOM     11  CB  PHE A   1       7.440  -8.166 -13.773  0.00  0.00    +0.053 C 
BRANCH  11  12
ATOM     12  CG  PHE A   1       6.476  -7.536 -14.747  0.00  0.00    -0.020 A 
ATOM     13  CD2 PHE A   1       6.169  -6.179 -14.666  0.00  0.00    -0.004 A 
ATOM     14  CE2 PHE A   1       5.268  -5.594 -15.563  0.00  0.00    -0.000 A 
ATOM     15  CZ  PHE A   1       4.683  -6.372 -16.558  0.00  0.00    -0.000 A 
ATOM     16  CE1 PHE A   1       4.982  -7.715 -16.648  0.00  0.00    -0.000 A 
ATOM     17  CD1 PHE A   1       5.878  -8.301 -15.739  0.00  0.00    -0.004 A 
ENDBRANCH  11  12
ENDBRANCH   1  11
TORSDOF 6
REMARK  Name = ../refined-set-2016/2xyd/2xyd_pocket.pdb
REMARK  300 active torsions:
REMARK  status: ('A' for Active; 'I' for Inactive)
REMARK    1  A    between atoms: _1  and  _3
REMARK    2  A    between atoms: _3  and  _4
REMARK    3  A    between atoms: _3  and  _6
REMARK    4  A    between atoms: _6  and  _7
REMARK    5  A    between atoms: _10  and  _12
REMARK    6  A    between atoms: _12  and  _13
REMARK    7  A    between atoms: _12  and  _15
REMARK    8  A    between atoms: _15  and  _16
REMARK    9  A    between atoms: _21  and  _22
REMARK   10  A    between atoms: _24  and  _26
REMARK   11  A    between atoms: _26  and  _27
REMARK   12  A    between atoms: _26  and  _29
REMARK   13  A    between atoms: _29  and  _30
REMARK   14  A    between atoms: _35  and  _36
REMARK   15  A    between atoms: _38  and  _40
REMARK   16  A    between atoms: _40  and  _41
REMARK   17  A    between atoms: _40  and  _43
REMARK   18  A    between atoms: _43  and  _44
REMARK   19  A    between atoms: _47  and  _49
REMARK   20  A    between atoms: _49  and  _50
REMARK   21  A    between atoms: _49  and  _52
REMARK   22  A    between atoms: _52  and  _53
REMARK   23  A    between atoms: _63  and  _65
REMARK   24  A    between atoms: _65  and  _66
REMARK   25  A    between atoms: _65  and  _68
REMARK   26  A    between atoms: _68  and  _69
REMARK   27  A    between atoms: _69  and  _70
REMARK   28  A    between atoms: _75  and  _77
REMARK   29  A    between atoms: _77  and  _78
REMARK   30  A    between atoms: _77  and  _80
REMARK   31  A    between atoms: _80  and  _81
REMARK   32  A    between atoms: _83  and  _85
REMARK   33  A    between atoms: _85  and  _86
REMARK   34  A    between atoms: _85  and  _88
REMARK   35  A    between atoms: _88  and  _89
REMARK   36  A    between atoms: _99  and  _101
REMARK   37  A    between atoms: _101  and  _102
REMARK   38  A    between atoms: _101  and  _104
REMARK   39  A    between atoms: _104  and  _105
REMARK   40  A    between atoms: _105  and  _106
REMARK   41  A    between atoms: _109  and  _111
REMARK   42  A    between atoms: _111  and  _112
REMARK   43  A    between atoms: _111  and  _114
REMARK   44  A    between atoms: _114  and  _115
REMARK   45  A    between atoms: _120  and  _122
REMARK   46  A    between atoms: _122  and  _123
REMARK   47  A    between atoms: _122  and  _125
REMARK   48  A    between atoms: _128  and  _130
REMARK   49  A    between atoms: _130  and  _131
REMARK   50  A    between atoms: _130  and  _133
REMARK   51  A    between atoms: _135  and  _137
REMARK   52  A    between atoms: _137  and  _138
REMARK   53  A    between atoms: _137  and  _140
REMARK   54  A    between atoms: _140  and  _141
REMARK   55  A    between atoms: _146  and  _148
REMARK   56  A    between atoms: _148  and  _149
REMARK   57  A    between atoms: _152  and  _154
REMARK   58  A    between atoms: _154  and  _155
REMARK   59  A    between atoms: _154  and  _157
REMARK   60  A    between atoms: _157  and  _158
REMARK   61  A    between atoms: _160  and  _162
REMARK   62  A    between atoms: _162  and  _163
REMARK   63  A    between atoms: _166  and  _168
REMARK   64  A    between atoms: _168  and  _169
REMARK   65  A    between atoms: _168  and  _171
REMARK   66  A    between atoms: _171  and  _172
REMARK   67  A    between atoms: _182  and  _184
REMARK   68  A    between atoms: _184  and  _185
REMARK   69  A    between atoms: _184  and  _187
REMARK   70  A    between atoms: _187  and  _188
REMARK   71  A    between atoms: _191  and  _193
REMARK   72  A    between atoms: _193  and  _194
REMARK   73  A    between atoms: _193  and  _196
REMARK   74  A    between atoms: _196  and  _197
REMARK   75  A    between atoms: _202  and  _203
REMARK   76  A    between atoms: _205  and  _207
REMARK   77  A    between atoms: _207  and  _208
REMARK   78  A    between atoms: _207  and  _210
REMARK   79  A    between atoms: _210  and  _211
REMARK   80  A    between atoms: _211  and  _212
REMARK   81  A    between atoms: _212  and  _213
REMARK   82  A    between atoms: _222  and  _224
REMARK   83  A    between atoms: _224  and  _225
REMARK   84  A    between atoms: _224  and  _227
REMARK   85  A    between atoms: _227  and  _228
REMARK   86  A    between atoms: _231  and  _233
REMARK   87  A    between atoms: _233  and  _234
REMARK   88  A    between atoms: _233  and  _236
REMARK   89  A    between atoms: _236  and  _237
REMARK   90  A    between atoms: _237  and  _238
REMARK   91  A    between atoms: _238  and  _239
REMARK   92  A    between atoms: _239  and  _240
REMARK   93  A    between atoms: _244  and  _246
REMARK   94  A    between atoms: _246  and  _247
REMARK   95  A    between atoms: _246  and  _249
REMARK   96  A    between atoms: _249  and  _250
REMARK   97  A    between atoms: _250  and  _251
REMARK   98  A    between atoms: _256  and  _258
REMARK   99  A    between atoms: _258  and  _259
REMARK  100  A    between atoms: _258  and  _261
REMARK  101  A    between atoms: _261  and  _262
REMARK  102  A    between atoms: _262  and  _263
REMARK  103  A    between atoms: _263  and  _264
REMARK  104  A    between atoms: _273  and  _275
REMARK  105  A    between atoms: _275  and  _276
REMARK  106  A    between atoms: _275  and  _278
REMARK  107  A    between atoms: _278  and  _279
REMARK  108  A    between atoms: _282  and  _284
REMARK  109  A    between atoms: _284  and  _285
REMARK  110  A    between atoms: _284  and  _287
REMARK  111  A    between atoms: _287  and  _288
REMARK  112  A    between atoms: _288  and  _289
REMARK  113  A    between atoms: _291  and  _293
REMARK  114  A    between atoms: _293  and  _294
REMARK  115  A    between atoms: _293  and  _296
REMARK  116  A    between atoms: _296  and  _297
REMARK  117  A    between atoms: _300  and  _302
REMARK  118  A    between atoms: _302  and  _303
REMARK  119  A    between atoms: _302  and  _305
REMARK  120  A    between atoms: _305  and  _306
REMARK  121  A    between atoms: _306  and  _307
REMARK  122  A    between atoms: _312  and  _314
REMARK  123  A    between atoms: _314  and  _315
REMARK  124  A    between atoms: _314  and  _317
REMARK  125  A    between atoms: _317  and  _318
REMARK  126  A    between atoms: _321  and  _323
REMARK  127  A    between atoms: _323  and  _324
REMARK  128  A    between atoms: _323  and  _326
REMARK  129  A    between atoms: _326  and  _327
REMARK  130  A    between atoms: _329  and  _331
REMARK  131  A    between atoms: _331  and  _332
REMARK  132  A    between atoms: _331  and  _334
REMARK  133  A    between atoms: _334  and  _335
REMARK  134  A    between atoms: _338  and  _340
REMARK  135  A    between atoms: _340  and  _341
REMARK  136  A    between atoms: _340  and  _343
REMARK  137  A    between atoms: _346  and  _348
REMARK  138  A    between atoms: _348  and  _349
REMARK  139  A    between atoms: _348  and  _351
REMARK  140  A    between atoms: _351  and  _352
REMARK  141  A    between atoms: _357  and  _359
REMARK  142  A    between atoms: _370  and  _373
REMARK  143  A    between atoms: _373  and  _374
REMARK  144  A    between atoms: _374  and  _375
REMARK  145  A    between atoms: _380  and  _383
REMARK  146  A    between atoms: _383  and  _384
REMARK  147  A    between atoms: _384  and  _385
REMARK  148  A    between atoms: _394  and  _395
REMARK  149  A    between atoms: _403  and  _405
REMARK  150  A    between atoms: _405  and  _406
REMARK  151  A    between atoms: _405  and  _408
REMARK  152  A    between atoms: _408  and  _409
REMARK  153  A    between atoms: _412  and  _414
REMARK  154  A    between atoms: _414  and  _415
REMARK  155  A    between atoms: _414  and  _417
REMARK  156  A    between atoms: _417  and  _418
REMARK  157  A    between atoms: _423  and  _424
REMARK  158  A    between atoms: _426  and  _428
REMARK  159  A    between atoms: _428  and  _429
REMARK  160  A    between atoms: _428  and  _431
REMARK  161  A    between atoms: _431  and  _432
REMARK  162  A    between atoms: _437  and  _438
REMARK  163  A    between atoms: _440  and  _442
REMARK  164  A    between atoms: _442  and  _443
REMARK  165  A    between atoms: _442  and  _445
REMARK  166  A    between atoms: _445  and  _446
REMARK  167  A    between atoms: _451  and  _452
REMARK  168  A    between atoms: _454  and  _456
REMARK  169  A    between atoms: _456  and  _457
REMARK  170  A    between atoms: _456  and  _459
REMARK  171  A    between atoms: _459  and  _460
REMARK  172  A    between atoms: _460  and  _461
REMARK  173  A    between atoms: _461  and  _462
REMARK  174  A    between atoms: _471  and  _473
REMARK  175  A    between atoms: _473  and  _474
REMARK  176  A    between atoms: _473  and  _476
REMARK  177  A    between atoms: _476  and  _477
REMARK  178  A    between atoms: _477  and  _478
REMARK  179  A    between atoms: _478  and  _479
REMARK  180  A    between atoms: _488  and  _490
REMARK  181  A    between atoms: _490  and  _491
REMARK  182  A    between atoms: _493  and  _495
REMARK  183  A    between atoms: _495  and  _496
REMARK  184  A    between atoms: _499  and  _501
REMARK  185  A    between atoms: _501  and  _502
REMARK  186  A    between atoms: _501  and  _504
REMARK  187  A    between atoms: _504  and  _505
REMARK  188  A    between atoms: _511  and  _512
REMARK  189  A    between atoms: _517  and  _519
REMARK  190  A    between atoms: _519  and  _520
REMARK  191  A    between atoms: _522  and  _524
REMARK  192  A    between atoms: _524  and  _525
REMARK  193  A    between atoms: _524  and  _527
REMARK  194  A    between atoms: _527  and  _528
REMARK  195  A    between atoms: _534  and  _536
REMARK  196  A    between atoms: _536  and  _537
REMARK  197  A    between atoms: _536  and  _539
REMARK  198  A    between atoms: _539  and  _540
REMARK  199  A    between atoms: _545  and  _547
REMARK  200  A    between atoms: _547  and  _548
REMARK  201  A    between atoms: _547  and  _550
REMARK  202  A    between atoms: _550  and  _551
REMARK  203  A    between atoms: _551  and  _552
REMARK  204  A    between atoms: _552  and  _553
REMARK  205  A    between atoms: _553  and  ZN_801
REMARK  206  A    between atoms: _555  and  _557
REMARK  207  A    between atoms: _557  and  _558
REMARK  208  A    between atoms: _561  and  _563
REMARK  209  A    between atoms: _563  and  _564
REMARK  210  A    between atoms: _566  and  _568
REMARK  211  A    between atoms: _568  and  _569
REMARK  212  A    between atoms: _568  and  _571
REMARK  213  A    between atoms: _571  and  _572
REMARK  214  A    between atoms: _575  and  _577
REMARK  215  A    between atoms: _577  and  _578
REMARK  216  A    between atoms: _581  and  _583
REMARK  217  A    between atoms: _583  and  _584
REMARK  218  A    between atoms: _583  and  _586
REMARK  219  A    between atoms: _586  and  _587
REMARK  220  A    between atoms: _587  and  _588
REMARK  221  A    between atoms: _591  and  _593
REMARK  222  A    between atoms: _593  and  _594
REMARK  223  A    between atoms: _593  and  _596
REMARK  224  A    between atoms: _596  and  _597
REMARK  225  A    between atoms: _597  and  _598
REMARK  226  A    between atoms: _598  and  _599
REMARK  227  A    between atoms: _599  and  _600
REMARK  228  A    between atoms: _604  and  _606
REMARK  229  A    between atoms: _606  and  _607
REMARK  230  A    between atoms: _606  and  _609
REMARK  231  A    between atoms: _609  and  _610
REMARK  232  A    between atoms: _616  and  _618
REMARK  233  A    between atoms: _618  and  _619
REMARK  234  A    between atoms: _618  and  _621
REMARK  235  A    between atoms: _621  and  _622
REMARK  236  A    between atoms: _628  and  _630
REMARK  237  A    between atoms: _630  and  _631
REMARK  238  A    between atoms: _633  and  _635
REMARK  239  A    between atoms: _635  and  _636
REMARK  240  A    between atoms: _635  and  _638
REMARK  241  A    between atoms: _641  and  _643
REMARK  242  A    between atoms: _643  and  _644
REMARK  243  A    between atoms: _643  and  _646
REMARK  244  A    between atoms: _646  and  _647
REMARK  245  A    between atoms: _647  and  _648
REMARK  246  A    between atoms: _648  and  _649
REMARK  247  A    between atoms: _649  and  _650
REMARK  248  A    between atoms: _654  and  _656
REMARK  249  A    between atoms: _656  and  _657
REMARK  250  A    between atoms: _656  and  _659
REMARK  251  A    between atoms: _659  and  _660
REMARK  252  A    between atoms: _666  and  _668
REMARK  253  A    between atoms: _668  and  _669
REMARK  254  A    between atoms: _668  and  _671
REMARK  255  A    between atoms: _671  and  _672
REMARK  256  A    between atoms: _677  and  _679
REMARK  257  A    between atoms: _679  and  _680
REMARK  258  A    between atoms: _679  and  _682
REMARK  259  A    between atoms: _682  and  _683
REMARK  260  A    between atoms: _688  and  _690
REMARK  261  A    between atoms: _690  and  _691
REMARK  262  A    between atoms: _690  and  _693
REMARK  263  A    between atoms: _696  and  _698
REMARK  264  A    between atoms: _698  and  _699
REMARK  265  A    between atoms: _698  and  _701
REMARK  266  A    between atoms: _701  and  _702
REMARK  267  A    between atoms: _706  and  _707
REMARK  268  A    between atoms: _712  and  _714
REMARK  269  A    between atoms: _714  and  _715
REMARK  270  A    between atoms: _714  and  _717
REMARK  271  A    between atoms: _717  and  _718
REMARK  272  A    between atoms: _723  and  _724
REMARK  273  A    between atoms: _726  and  _728
REMARK  274  A    between atoms: _728  and  _729
REMARK  275  A    between atoms: _728  and  _731
REMARK  276  A    between atoms: _731  and  _732
REMARK  277  A    between atoms: _732  and  _733
REMARK  278  A    between atoms: _733  and  _734
REMARK  279  A    between atoms: _743  and  _745
REMARK  280  A    between atoms: _745  and  _746
REMARK  281  A    between atoms: _745  and  _748
REMARK  282  A    between atoms: _748  and  _749
REMARK  283  A    between atoms: _754  and  _755
REMARK  284  A    between atoms: _757  and  _759
REMARK  285  A    between atoms: _759  and  _760
REMARK  286  A    between atoms: _759  and  _762
REMARK  287  A    between atoms: _762  and  _763
REMARK  288  A    between atoms: _769  and  _771
REMARK  289  A    between atoms: _771  and  _772
REMARK  290  A    between atoms: _771  and  _774
REMARK  291  A    between atoms: _774  and  _775
REMARK  292  A    between atoms: _777  and  _779
REMARK  293  A    between atoms: _779  and  _780
REMARK  294  A    between atoms: _779  and  _782
REMARK  295  A    between atoms: _782  and  _783
REMARK  296  A    between atoms: _789  and  _791
REMARK  297  A    between atoms: _791  and  _792
REMARK  298  A    between atoms: _791  and  _794
REMARK  299  A    between atoms: _794  and  _795
REMARK  300  A    between atoms: _795  and  _796
REMARK                            x       y       z     vdW  Elec       q    Type
REMARK                         _______ _______ _______ _____ _____    ______ ____
ROOT
ATOM      1  CA  VAL A   1       0.803  -6.948 -11.904  0.00  0.00    +0.133 C 
ENDROOT
BRANCH   1   2
ATOM      2  CB  VAL A   1       0.873  -7.675 -13.268  0.00  0.00    +0.023 C 
ATOM      3  CG2 VAL A   1       2.153  -7.276 -14.019  0.00  0.00    +0.002 C 
ATOM      4  CG1 VAL A   1      -0.359  -7.347 -14.137  0.00  0.00    +0.002 C 
ENDBRANCH   1   2
BRANCH   1   5
ATOM      5  N   VAL A   1       1.871  -7.352 -10.977  0.00  0.00    -0.239 NA
ATOM      6  H   VAL A   1       2.502  -8.139 -11.231  0.00  0.00    +0.142 HD
ENDBRANCH   1   5
BRANCH   1   7
ATOM      7  C   VAL A   1      -0.582  -7.090 -11.295  0.00  0.00    +0.224 C 
ATOM      8  O   VAL A   1      -1.385  -6.148 -11.326  0.00  0.00    -0.287 OA
ENDBRANCH   1   7
TORSDOF 3
REMARK  Name = ../refined-set-2016/2xyd/2xyd_pocket.pdb
REMARK  300 active torsions:
REMARK  status: ('A' for Active; 'I' for Inactive)
REMARK    1  A    between atoms: _1  and  _3
REMARK    2  A    between atoms: _3  and  _4
REMARK    3  A    between atoms: _3  and  _6
REMARK    4  A    between atoms: _6  and  _7
REMARK    5  A    between atoms: _10  and  _12
REMARK    6  A    between atoms: _12  and  _13
REMARK    7  A    between atoms: _12  and  _15
REMARK    8  A    between atoms: _15  and  _16
REMARK    9  A    between atoms: _21  and  _22
REMARK   10  A    between atoms: _24  and  _26
REMARK   11  A    between atoms: _26  and  _27
REMARK   12  A    between atoms: _26  and  _29
REMARK   13  A    between atoms: _29  and  _30
REMARK   14  A    between atoms: _35  and  _36
REMARK   15  A    between atoms: _38  and  _40
REMARK   16  A    between atoms: _40  and  _41
REMARK   17  A    between atoms: _40  and  _43
REMARK   18  A    between atoms: _43  and  _44
REMARK   19  A    between atoms: _47  and  _49
REMARK   20  A    between atoms: _49  and  _50
REMARK   21  A    between atoms: _49  and  _52
REMARK   22  A    between atoms: _52  and  _53
REMARK   23  A    between atoms: _63  and  _65
REMARK   24  A    between atoms: _65  and  _66
REMARK   25  A    between atoms: _65  and  _68
REMARK   26  A    between atoms: _68  and  _69
REMARK   27  A    between atoms: _69  and  _70
REMARK   28  A    between atoms: _75  and  _77
REMARK   29  A    between atoms: _77  and  _78
REMARK   30  A    between atoms: _77  and  _80
REMARK   31  A    between atoms: _80  and  _81
REMARK   32  A    between atoms: _83  and  _85
REMARK   33  A    between atoms: _85  and  _86
REMARK   34  A    between atoms: _85  and  _88
REMARK   35  A    between atoms: _88  and  _89
REMARK   36  A    between atoms: _99  and  _101
REMARK   37  A    between atoms: _101  and  _102
REMARK   38  A    between atoms: _101  and  _104
REMARK   39  A    between atoms: _104  and  _105
REMARK   40  A    between atoms: _105  and  _106
REMARK   41  A    between atoms: _109  and  _111
REMARK   42  A    between atoms: _111  and  _112
REMARK   43  A    between atoms: _111  and  _114
REMARK   44  A    between atoms: _114  and  _115
REMARK   45  A    between atoms: _120  and  _122
REMARK   46  A    between atoms: _122  and  _123
REMARK   47  A    between atoms: _122  and  _125
REMARK   48  A    between atoms: _128  and  _130
REMARK   49  A    between atoms: _130  and  _131
REMARK   50  A    between atoms: _130  and  _133
REMARK   51  A    between atoms: _135  and  _137
REMARK   52  A    between atoms: _137  and  _138
REMARK   53  A    between atoms: _137  and  _140
REMARK   54  A    between atoms: _140  and  _141
REMARK   55  A    between atoms: _146  and  _148
REMARK   56  A    between atoms: _148  and  _149
REMARK   57  A    between atoms: _152  and  _154
REMARK   58  A    between atoms: _154  and  _155
REMARK   59  A    between atoms: _154  and  _157
REMARK   60  A    between atoms: _157  and  _158
REMARK   61  A    between atoms: _160  and  _162
REMARK   62  A    between atoms: _162  and  _163
REMARK   63  A    between atoms: _166  and  _168
REMARK   64  A    between atoms: _168  and  _169
REMARK   65  A    between atoms: _168  and  _171
REMARK   66  A    between atoms: _171  and  _172
REMARK   67  A    between atoms: _182  and  _184
REMARK   68  A    between atoms: _184  and  _185
REMARK   69  A    between atoms: _184  and  _187
REMARK   70  A    between atoms: _187  and  _188
REMARK   71  A    between atoms: _191  and  _193
REMARK   72  A    between atoms: _193  and  _194
REMARK   73  A    between atoms: _193  and  _196
REMARK   74  A    between atoms: _196  and  _197
REMARK   75  A    between atoms: _202  and  _203
REMARK   76  A    between atoms: _205  and  _207
REMARK   77  A    between atoms: _207  and  _208
REMARK   78  A    between atoms: _207  and  _210
REMARK   79  A    between atoms: _210  and  _211
REMARK   80  A    between atoms: _211  and  _212
REMARK   81  A    between atoms: _212  and  _213
REMARK   82  A    between atoms: _222  and  _224
REMARK   83  A    between atoms: _224  and  _225
REMARK   84  A    between atoms: _224  and  _227
REMARK   85  A    between atoms: _227  and  _228
REMARK   86  A    between atoms: _231  and  _233
REMARK   87  A    between atoms: _233  and  _234
REMARK   88  A    between atoms: _233  and  _236
REMARK   89  A    between atoms: _236  and  _237
REMARK   90  A    between atoms: _237  and  _238
REMARK   91  A    between atoms: _238  and  _239
REMARK   92  A    between atoms: _239  and  _240
REMARK   93  A    between atoms: _244  and  _246
REMARK   94  A    between atoms: _246  and  _247
REMARK   95  A    between atoms: _246  and  _249
REMARK   96  A    between atoms: _249  and  _250
REMARK   97  A    between atoms: _250  and  _251
REMARK   98  A    between atoms: _256  and  _258
REMARK   99  A    between atoms: _258  and  _259
REMARK  100  A    between atoms: _258  and  _261
REMARK  101  A    between atoms: _261  and  _262
REMARK  102  A    between atoms: _262  and  _263
REMARK  103  A    between atoms: _263  and  _264
REMARK  104  A    between atoms: _273  and  _275
REMARK  105  A    between atoms: _275  and  _276
REMARK  106  A    between atoms: _275  and  _278
REMARK  107  A    between atoms: _278  and  _279
REMARK  108  A    between atoms: _282  and  _284
REMARK  109  A    between atoms: _284  and  _285
REMARK  110  A    between atoms: _284  and  _287
REMARK  111  A    between atoms: _287  and  _288
REMARK  112  A    between atoms: _288  and  _289
REMARK  113  A    between atoms: _291  and  _293
REMARK  114  A    between atoms: _293  and  _294
REMARK  115  A    between atoms: _293  and  _296
REMARK  116  A    between atoms: _296  and  _297
REMARK  117  A    between atoms: _300  and  _302
REMARK  118  A    between atoms: _302  and  _303
REMARK  119  A    between atoms: _302  and  _305
REMARK  120  A    between atoms: _305  and  _306
REMARK  121  A    between atoms: _306  and  _307
REMARK  122  A    between atoms: _312  and  _314
REMARK  123  A    between atoms: _314  and  _315
REMARK  124  A    between atoms: _314  and  _317
REMARK  125  A    between atoms: _317  and  _318
REMARK  126  A    between atoms: _321  and  _323
REMARK  127  A    between atoms: _323  and  _324
REMARK  128  A    between atoms: _323  and  _326
REMARK  129  A    between atoms: _326  and  _327
REMARK  130  A    between atoms: _329  and  _331
REMARK  131  A    between atoms: _331  and  _332
REMARK  132  A    between atoms: _331  and  _334
REMARK  133  A    between atoms: _334  and  _335
REMARK  134  A    between atoms: _338  and  _340
REMARK  135  A    between atoms: _340  and  _341
REMARK  136  A    between atoms: _340  and  _343
REMARK  137  A    between atoms: _346  and  _348
REMARK  138  A    between atoms: _348  and  _349
REMARK  139  A    between atoms: _348  and  _351
REMARK  140  A    between atoms: _351  and  _352
REMARK  141  A    between atoms: _357  and  _359
REMARK  142  A    between atoms: _370  and  _373
REMARK  143  A    between atoms: _373  and  _374
REMARK  144  A    between atoms: _374  and  _375
REMARK  145  A    between atoms: _380  and  _383
REMARK  146  A    between atoms: _383  and  _384
REMARK  147  A    between atoms: _384  and  _385
REMARK  148  A    between atoms: _394  and  _395
REMARK  149  A    between atoms: _403  and  _405
REMARK  150  A    between atoms: _405  and  _406
REMARK  151  A    between atoms: _405  and  _408
REMARK  152  A    between atoms: _408  and  _409
REMARK  153  A    between atoms: _412  and  _414
REMARK  154  A    between atoms: _414  and  _415
REMARK  155  A    between atoms: _414  and  _417
REMARK  156  A    between atoms: _417  and  _418
REMARK  157  A    between atoms: _423  and  _424
REMARK  158  A    between atoms: _426  and  _428
REMARK  159  A    between atoms: _428  and  _429
REMARK  160  A    between atoms: _428  and  _431
REMARK  161  A    between atoms: _431  and  _432
REMARK  162  A    between atoms: _437  and  _438
REMARK  163  A    between atoms: _440  and  _442
REMARK  164  A    between atoms: _442  and  _443
REMARK  165  A    between atoms: _442  and  _445
REMARK  166  A    between atoms: _445  and  _446
REMARK  167  A    between atoms: _451  and  _452
REMARK  168  A    between atoms: _454  and  _456
REMARK  169  A    between atoms: _456  and  _457
REMARK  170  A    between atoms: _456  and  _459
REMARK  171  A    between atoms: _459  and  _460
REMARK  172  A    between atoms: _460  and  _461
REMARK  173  A    between atoms: _461  and  _462
REMARK  174  A    between atoms: _471  and  _473
REMARK  175  A    between atoms: _473  and  _474
REMARK  176  A    between atoms: _473  and  _476
REMARK  177  A    between atoms: _476  and  _477
REMARK  178  A    between atoms: _477  and  _478
REMARK  179  A    between atoms: _478  and  _479
REMARK  180  A    between atoms: _488  and  _490
REMARK  181  A    between atoms: _490  and  _491
REMARK  182  A    between atoms: _493  and  _495
REMARK  183  A    between atoms: _495  and  _496
REMARK  184  A    between atoms: _499  and  _501
REMARK  185  A    between atoms: _501  and  _502
REMARK  186  A    between atoms: _501  and  _504
REMARK  187  A    between atoms: _504  and  _505
REMARK  188  A    between atoms: _511  and  _512
REMARK  189  A    between atoms: _517  and  _519
REMARK  190  A    between atoms: _519  and  _520
REMARK  191  A    between atoms: _522  and  _524
REMARK  192  A    between atoms: _524  and  _525
REMARK  193  A    between atoms: _524  and  _527
REMARK  194  A    between atoms: _527  and  _528
REMARK  195  A    between atoms: _534  and  _536
REMARK  196  A    between atoms: _536  and  _537
REMARK  197  A    between atoms: _536  and  _539
REMARK  198  A    between atoms: _539  and  _540
REMARK  199  A    between atoms: _545  and  _547
REMARK  200  A    between atoms: _547  and  _548
REMARK  201  A    between atoms: _547  and  _550
REMARK  202  A    between atoms: _550  and  _551
REMARK  203  A    between atoms: _551  and  _552
REMARK  204  A    between atoms: _552  and  _553
REMARK  205  A    between atoms: _553  and  ZN_801
REMARK  206  A    between atoms: _555  and  _557
REMARK  207  A    between atoms: _557  and  _558
REMARK  208  A    between atoms: _561  and  _563
REMARK  209  A    between atoms: _563  and  _564
REMARK  210  A    between atoms: _566  and  _568
REMARK  211  A    between atoms: _568  and  _569
REMARK  212  A    between atoms: _568  and  _571
REMARK  213  A    between atoms: _571  and  _572
REMARK  214  A    between atoms: _575  and  _577
REMARK  215  A    between atoms: _577  and  _578
REMARK  216  A    between atoms: _581  and  _583
REMARK  217  A    between atoms: _583  and  _584
REMARK  218  A    between atoms: _583  and  _586
REMARK  219  A    between atoms: _586  and  _587
REMARK  220  A    between atoms: _587  and  _588
REMARK  221  A    between atoms: _591  and  _593
REMARK  222  A    between atoms: _593  and  _594
REMARK  223  A    between atoms: _593  and  _596
REMARK  224  A    between atoms: _596  and  _597
REMARK  225  A    between atoms: _597  and  _598
REMARK  226  A    between atoms: _598  and  _599
REMARK  227  A    between atoms: _599  and  _600
REMARK  228  A    between atoms: _604  and  _606
REMARK  229  A    between atoms: _606  and  _607
REMARK  230  A    between atoms: _606  and  _609
REMARK  231  A    between atoms: _609  and  _610
REMARK  232  A    between atoms: _616  and  _618
REMARK  233  A    between atoms: _618  and  _619
REMARK  234  A    between atoms: _618  and  _621
REMARK  235  A    between atoms: _621  and  _622
REMARK  236  A    between atoms: _628  and  _630
REMARK  237  A    between atoms: _630  and  _631
REMARK  238  A    between atoms: _633  and  _635
REMARK  239  A    between atoms: _635  and  _636
REMARK  240  A    between atoms: _635  and  _638
REMARK  241  A    between atoms: _641  and  _643
REMARK  242  A    between atoms: _643  and  _644
REMARK  243  A    between atoms: _643  and  _646
REMARK  244  A    between atoms: _646  and  _647
REMARK  245  A    between atoms: _647  and  _648
REMARK  246  A    between atoms: _648  and  _649
REMARK  247  A    between atoms: _649  and  _650
REMARK  248  A    between atoms: _654  and  _656
REMARK  249  A    between atoms: _656  and  _657
REMARK  250  A    between atoms: _656  and  _659
REMARK  251  A    between atoms: _659  and  _660
REMARK  252  A    between atoms: _666  and  _668
REMARK  253  A    between atoms: _668  and  _669
REMARK  254  A    between atoms: _668  and  _671
REMARK  255  A    between atoms: _671  and  _672
REMARK  256  A    between atoms: _677  and  _679
REMARK  257  A    between atoms: _679  and  _680
REMARK  258  A    between atoms: _679  and  _682
REMARK  259  A    between atoms: _682  and  _683
REMARK  260  A    between atoms: _688  and  _690
REMARK  261  A    between atoms: _690  and  _691
REMARK  262  A    between atoms: _690  and  _693
REMARK  263  A    between atoms: _696  and  _698
REMARK  264  A    between atoms: _698  and  _699
REMARK  265  A    between atoms: _698  and  _701
REMARK  266  A    between atoms: _701  and  _702
REMARK  267  A    between atoms: _706  and  _707
REMARK  268  A    between atoms: _712  and  _714
REMARK  269  A    between atoms: _714  and  _715
REMARK  270  A    between atoms: _714  and  _717
REMARK  271  A    between atoms: _717  and  _718
REMARK  272  A    between atoms: _723  and  _724
REMARK  273  A    between atoms: _726  and  _728
REMARK  274  A    between atoms: _728  and  _729
REMARK  275  A    between atoms: _728  and  _731
REMARK  276  A    between atoms: _731  and  _732
REMARK  277  A    between atoms: _732  and  _733
REMARK  278  A    between atoms: _733  and  _734
REMARK  279  A    between atoms: _743  and  _745
REMARK  280  A    between atoms: _745  and  _746
REMARK  281  A    between atoms: _745  and  _748
REMARK  282  A    between atoms: _748  and  _749
REMARK  283  A    between atoms: _754  and  _755
REMARK  284  A    between atoms: _757  and  _759
REMARK  285  A    between atoms: _759  and  _760
REMARK  286  A    between atoms: _759  and  _762
REMARK  287  A    between atoms: _762  and  _763
REMARK  288  A    between atoms: _769  and  _771
REMARK  289  A    between atoms: _771  and  _772
REMARK  290  A    between atoms: _771  and  _774
REMARK  291  A    between atoms: _774  and  _775
REMARK  292  A    between atoms: _777  and  _779
REMARK  293  A    between atoms: _779  and  _780
REMARK  294  A    between atoms: _779  and  _782
REMARK  295  A    between atoms: _782  and  _783
REMARK  296  A    between atoms: _789  and  _791
REMARK  297  A    between atoms: _791  and  _792
REMARK  298  A    between atoms: _791  and  _794
REMARK  299  A    between atoms: _794  and  _795
REMARK  300  A    between atoms: _795  and  _796
REMARK                            x       y       z     vdW  Elec       q    Type
REMARK                         _______ _______ _______ _____ _____    ______ ____
ROOT
ATOM      1  CA  PHE A   2      -1.327  -6.910 -22.965  0.00  0.00    +0.153 C 
ENDROOT
BRANCH   1   4
ATOM      2  C   LYS A   1      -0.488  -5.173 -21.399  0.00  0.00    +0.238 C 
ATOM      3  O   LYS A   1      -1.599  -4.926 -20.909  0.00  0.00    -0.274 OA
ATOM      4  N   PHE A   2      -0.262  -6.147 -22.289  0.00  0.00    -0.297 N 
ATOM      5  H   PHE A   2       0.726  -6.380 -22.518  0.00  0.00    +0.150 HD
BRANCH   2   6
ATOM      6  CA  LYS A   1       0.721  -4.348 -20.971  0.00  0.00    +0.145 C 
BRANCH   6   7
ATOM      7  N   LYS A   1       0.374  -2.952 -21.114  0.00  0.00    -0.238 NA
ATOM      8  H   LYS A   1      -0.291  -2.529 -20.435  0.00  0.00    +0.142 HD
ENDBRANCH   6   7
BRANCH   6   9
ATOM      9  CB  LYS A   1       1.081  -4.654 -19.512  0.00  0.00    +0.026 C 
BRANCH   9  10
ATOM     10  CG  LYS A   1       1.351  -6.138 -19.245  0.00  0.00    -0.000 C 
BRANCH  10  11
ATOM     11  CD  LYS A   1       2.493  -6.665 -20.117  0.00  0.00    -0.024 C 
BRANCH  11  12
ATOM     12  CE  LYS A   1       2.769  -8.158 -19.851  0.00  0.00    -0.086 C 
BRANCH  12  13
ATOM     13  NZ  LYS A   1       3.726  -8.733 -20.851  0.00  0.00    +0.380 N 
ATOM     14  HZ1 LYS A   1       3.886  -9.738 -20.638  0.00  0.00    -0.089 HD
ATOM     15  HZ2 LYS A   1       4.629  -8.219 -20.800  0.00  0.00    -0.089 HD
ATOM     16  HZ3 LYS A   1       3.325  -8.639 -21.806  0.00  0.00    -0.089 HD
ENDBRANCH  12  13
ENDBRANCH  11  12
ENDBRANCH  10  11
ENDBRANCH   9  10
ENDBRANCH   6   9
ENDBRANCH   2   6
ENDBRANCH   1   4
BRANCH   1  17
ATOM     17  C   PHE A   2      -2.462  -7.361 -22.072  0.00  0.00    +0.241 C 
ATOM     18  N   HIS A   3      -2.102  -8.006 -20.965  0.00  0.00    -0.298 N 
ATOM     19  H   HIS A   3      -1.094  -8.034 -20.709  0.00  0.00    +0.150 HD
ATOM     20  O   PHE A   2      -3.632  -7.150 -22.387  0.00  0.00    -0.273 OA
BRANCH  18  21
ATOM     21  CA  HIS A   3      -3.064  -8.675 -20.097  0.00  0.00    +0.143 C 
BRANCH  21  22
ATOM     22  C   HIS A   3      -4.079  -7.769 -19.425  0.00  0.00    +0.227 C 
ATOM     23  O   HIS A   3      -5.156  -8.220 -19.040  0.00  0.00    -0.286 OA
ENDBRANCH  21  22
BRANCH  21  24
ATOM     24  CB  HIS A   3      -2.314  -9.497 -19.049  0.00  0.00    +0.075 C 
BRANCH  24  25
ATOM     25  CG  HIS A   3      -1.361 -10.478 -19.653  0.00  0.00    +0.082 A 
ATOM     26  ND1 HIS A   3      -1.583 -11.838 -19.634  0.00  0.00    -0.227 NA
ATOM     27  CE1 HIS A   3      -0.589 -12.447 -20.255  0.00  0.00    +0.199 A 
ATOM     28  NE2 HIS A   3       0.257 -11.531 -20.690  0.00  0.00    -0.221 NA
ATOM     29  CD2 HIS A   3      -0.210 -10.290 -20.337  0.00  0.00    +0.115 A 
ENDBRANCH  24  25
ENDBRANCH  21  24
ENDBRANCH  18  21
ENDBRANCH   1  17
BRANCH   1  30
ATOM     30  CB  PHE A   2      -0.757  -8.142 -23.700  0.00  0.00    +0.055 C 
BRANCH  30  31
ATOM     31  CG  PHE A   2      -1.817  -9.055 -24.250  0.00  0.00    -0.020 A 
ATOM     32  CD2 PHE A   2      -2.310 -10.120 -23.488  0.00  0.00    -0.004 A 
ATOM     33  CE2 PHE A   2      -3.309 -10.964 -23.988  0.00  0.00    -0.000 A 
ATOM     34  CZ  PHE A   2      -3.842 -10.733 -25.268  0.00  0.00    -0.000 A 
ATOM     35  CE1 PHE A   2      -3.363  -9.677 -26.032  0.00  0.00    -0.000 A 
ATOM     36  CD1 PHE A   2      -2.351  -8.837 -25.513  0.00  0.00    -0.004 A 
ENDBRANCH  30  31
ENDBRANCH   1  30
TORSDOF 15
REMARK  Name = ../refined-set-2016/2xyd/2xyd_pocket.pdb
REMARK  300 active torsions:
REMARK  status: ('A' for Active; 'I' for Inactive)
REMARK    1  A    between atoms: _1  and  _3
REMARK    2  A    between atoms: _3  and  _4
REMARK    3  A    between atoms: _3  and  _6
REMARK    4  A    between atoms: _6  and  _7
REMARK    5  A    between atoms: _10  and  _12
REMARK    6  A    between atoms: _12  and  _13
REMARK    7  A    between atoms: _12  and  _15
REMARK    8  A    between atoms: _15  and  _16
REMARK    9  A    between atoms: _21  and  _22
REMARK   10  A    between atoms: _24  and  _26
REMARK   11  A    between atoms: _26  and  _27
REMARK   12  A    between atoms: _26  and  _29
REMARK   13  A    between atoms: _29  and  _30
REMARK   14  A    between atoms: _35  and  _36
REMARK   15  A    between atoms: _38  and  _40
REMARK   16  A    between atoms: _40  and  _41
REMARK   17  A    between atoms: _40  and  _43
REMARK   18  A    between atoms: _43  and  _44
REMARK   19  A    between atoms: _47  and  _49
REMARK   20  A    between atoms: _49  and  _50
REMARK   21  A    between atoms: _49  and  _52
REMARK   22  A    between atoms: _52  and  _53
REMARK   23  A    between atoms: _63  and  _65
REMARK   24  A    between atoms: _65  and  _66
REMARK   25  A    between atoms: _65  and  _68
REMARK   26  A    between atoms: _68  and  _69
REMARK   27  A    between atoms: _69  and  _70
REMARK   28  A    between atoms: _75  and  _77
REMARK   29  A    between atoms: _77  and  _78
REMARK   30  A    between atoms: _77  and  _80
REMARK   31  A    between atoms: _80  and  _81
REMARK   32  A    between atoms: _83  and  _85
REMARK   33  A    between atoms: _85  and  _86
REMARK   34  A    between atoms: _85  and  _88
REMARK   35  A    between atoms: _88  and  _89
REMARK   36  A    between atoms: _99  and  _101
REMARK   37  A    between atoms: _101  and  _102
REMARK   38  A    between atoms: _101  and  _104
REMARK   39  A    between atoms: _104  and  _105
REMARK   40  A    between atoms: _105  and  _106
REMARK   41  A    between atoms: _109  and  _111
REMARK   42  A    between atoms: _111  and  _112
REMARK   43  A    between atoms: _111  and  _114
REMARK   44  A    between atoms: _114  and  _115
REMARK   45  A    between atoms: _120  and  _122
REMARK   46  A    between atoms: _122  and  _123
REMARK   47  A    between atoms: _122  and  _125
REMARK   48  A    between atoms: _128  and  _130
REMARK   49  A    between atoms: _130  and  _131
REMARK   50  A    between atoms: _130  and  _133
REMARK   51  A    between atoms: _135  and  _137
REMARK   52  A    between atoms: _137  and  _138
REMARK   53  A    between atoms: _137  and  _140
REMARK   54  A    between atoms: _140  and  _141
REMARK   55  A    between atoms: _146  and  _148
REMARK   56  A    between atoms: _148  and  _149
REMARK   57  A    between atoms: _152  and  _154
REMARK   58  A    between atoms: _154  and  _155
REMARK   59  A    between atoms: _154  and  _157
REMARK   60  A    between atoms: _157  and  _158
REMARK   61  A    between atoms: _160  and  _162
REMARK   62  A    between atoms: _162  and  _163
REMARK   63  A    between atoms: _166  and  _168
REMARK   64  A    between atoms: _168  and  _169
REMARK   65  A    between atoms: _168  and  _171
REMARK   66  A    between atoms: _171  and  _172
REMARK   67  A    between atoms: _182  and  _184
REMARK   68  A    between atoms: _184  and  _185
REMARK   69  A    between atoms: _184  and  _187
REMARK   70  A    between atoms: _187  and  _188
REMARK   71  A    between atoms: _191  and  _193
REMARK   72  A    between atoms: _193  and  _194
REMARK   73  A    between atoms: _193  and  _196
REMARK   74  A    between atoms: _196  and  _197
REMARK   75  A    between atoms: _202  and  _203
REMARK   76  A    between atoms: _205  and  _207
REMARK   77  A    between atoms: _207  and  _208
REMARK   78  A    between atoms: _207  and  _210
REMARK   79  A    between atoms: _210  and  _211
REMARK   80  A    between atoms: _211  and  _212
REMARK   81  A    between atoms: _212  and  _213
REMARK   82  A    between atoms: _222  and  _224
REMARK   83  A    between atoms: _224  and  _225
REMARK   84  A    between atoms: _224  and  _227
REMARK   85  A    between atoms: _227  and  _228
REMARK   86  A    between atoms: _231  and  _233
REMARK   87  A    between atoms: _233  and  _234
REMARK   88  A    between atoms: _233  and  _236
REMARK   89  A    between atoms: _236  and  _237
REMARK   90  A    between atoms: _237  and  _238
REMARK   91  A    between atoms: _238  and  _239
REMARK   92  A    between atoms: _239  and  _240
REMARK   93  A    between atoms: _244  and  _246
REMARK   94  A    between atoms: _246  and  _247
REMARK   95  A    between atoms: _246  and  _249
REMARK   96  A    between atoms: _249  and  _250
REMARK   97  A    between atoms: _250  and  _251
REMARK   98  A    between atoms: _256  and  _258
REMARK   99  A    between atoms: _258  and  _259
REMARK  100  A    between atoms: _258  and  _261
REMARK  101  A    between atoms: _261  and  _262
REMARK  102  A    between atoms: _262  and  _263
REMARK  103  A    between atoms: _263  and  _264
REMARK  104  A    between atoms: _273  and  _275
REMARK  105  A    between atoms: _275  and  _276
REMARK  106  A    between atoms: _275  and  _278
REMARK  107  A    between atoms: _278  and  _279
REMARK  108  A    between atoms: _282  and  _284
REMARK  109  A    between atoms: _284  and  _285
REMARK  110  A    between atoms: _284  and  _287
REMARK  111  A    between atoms: _287  and  _288
REMARK  112  A    between atoms: _288  and  _289
REMARK  113  A    between atoms: _291  and  _293
REMARK  114  A    between atoms: _293  and  _294
REMARK  115  A    between atoms: _293  and  _296
REMARK  116  A    between atoms: _296  and  _297
REMARK  117  A    between atoms: _300  and  _302
REMARK  118  A    between atoms: _302  and  _303
REMARK  119  A    between atoms: _302  and  _305
REMARK  120  A    between atoms: _305  and  _306
REMARK  121  A    between atoms: _306  and  _307
REMARK  122  A    between atoms: _312  and  _314
REMARK  123  A    between atoms: _314  and  _315
REMARK  124  A    between atoms: _314  and  _317
REMARK  125  A    between atoms: _317  and  _318
REMARK  126  A    between atoms: _321  and  _323
REMARK  127  A    between atoms: _323  and  _324
REMARK  128  A    between atoms: _323  and  _326
REMARK  129  A    between atoms: _326  and  _327
REMARK  130  A    between atoms: _329  and  _331
REMARK  131  A    between atoms: _331  and  _332
REMARK  132  A    between atoms: _331  and  _334
REMARK  133  A    between atoms: _334  and  _335
REMARK  134  A    between atoms: _338  and  _340
REMARK  135  A    between atoms: _340  and  _341
REMARK  136  A    between atoms: _340  and  _343
REMARK  137  A    between atoms: _346  and  _348
REMARK  138  A    between atoms: _348  and  _349
REMARK  139  A    between atoms: _348  and  _351
REMARK  140  A    between atoms: _351  and  _352
REMARK  141  A    between atoms: _357  and  _359
REMARK  142  A    between atoms: _370  and  _373
REMARK  143  A    between atoms: _373  and  _374
REMARK  144  A    between atoms: _374  and  _375
REMARK  145  A    between atoms: _380  and  _383
REMARK  146  A    between atoms: _383  and  _384
REMARK  147  A    between atoms: _384  and  _385
REMARK  148  A    between atoms: _394  and  _395
REMARK  149  A    between atoms: _403  and  _405
REMARK  150  A    between atoms: _405  and  _406
REMARK  151  A    between atoms: _405  and  _408
REMARK  152  A    between atoms: _408  and  _409
REMARK  153  A    between atoms: _412  and  _414
REMARK  154  A    between atoms: _414  and  _415
REMARK  155  A    between atoms: _414  and  _417
REMARK  156  A    between atoms: _417  and  _418
REMARK  157  A    between atoms: _423  and  _424
REMARK  158  A    between atoms: _426  and  _428
REMARK  159  A    between atoms: _428  and  _429
REMARK  160  A    between atoms: _428  and  _431
REMARK  161  A    between atoms: _431  and  _432
REMARK  162  A    between atoms: _437  and  _438
REMARK  163  A    between atoms: _440  and  _442
REMARK  164  A    between atoms: _442  and  _443
REMARK  165  A    between atoms: _442  and  _445
REMARK  166  A    between atoms: _445  and  _446
REMARK  167  A    between atoms: _451  and  _452
REMARK  168  A    between atoms: _454  and  _456
REMARK  169  A    between atoms: _456  and  _457
REMARK  170  A    between atoms: _456  and  _459
REMARK  171  A    between atoms: _459  and  _460
REMARK  172  A    between atoms: _460  and  _461
REMARK  173  A    between atoms: _461  and  _462
REMARK  174  A    between atoms: _471  and  _473
REMARK  175  A    between atoms: _473  and  _474
REMARK  176  A    between atoms: _473  and  _476
REMARK  177  A    between atoms: _476  and  _477
REMARK  178  A    between atoms: _477  and  _478
REMARK  179  A    between atoms: _478  and  _479
REMARK  180  A    between atoms: _488  and  _490
REMARK  181  A    between atoms: _490  and  _491
REMARK  182  A    between atoms: _493  and  _495
REMARK  183  A    between atoms: _495  and  _496
REMARK  184  A    between atoms: _499  and  _501
REMARK  185  A    between atoms: _501  and  _502
REMARK  186  A    between atoms: _501  and  _504
REMARK  187  A    between atoms: _504  and  _505
REMARK  188  A    between atoms: _511  and  _512
REMARK  189  A    between atoms: _517  and  _519
REMARK  190  A    between atoms: _519  and  _520
REMARK  191  A    between atoms: _522  and  _524
REMARK  192  A    between atoms: _524  and  _525
REMARK  193  A    between atoms: _524  and  _527
REMARK  194  A    between atoms: _527  and  _528
REMARK  195  A    between atoms: _534  and  _536
REMARK  196  A    between atoms: _536  and  _537
REMARK  197  A    between atoms: _536  and  _539
REMARK  198  A    between atoms: _539  and  _540
REMARK  199  A    between atoms: _545  and  _547
REMARK  200  A    between atoms: _547  and  _548
REMARK  201  A    between atoms: _547  and  _550
REMARK  202  A    between atoms: _550  and  _551
REMARK  203  A    between atoms: _551  and  _552
REMARK  204  A    between atoms: _552  and  _553
REMARK  205  A    between atoms: _553  and  ZN_801
REMARK  206  A    between atoms: _555  and  _557
REMARK  207  A    between atoms: _557  and  _558
REMARK  208  A    between atoms: _561  and  _563
REMARK  209  A    between atoms: _563  and  _564
REMARK  210  A    between atoms: _566  and  _568
REMARK  211  A    between atoms: _568  and  _569
REMARK  212  A    between atoms: _568  and  _571
REMARK  213  A    between atoms: _571  and  _572
REMARK  214  A    between atoms: _575  and  _577
REMARK  215  A    between atoms: _577  and  _578
REMARK  216  A    between atoms: _581  and  _583
REMARK  217  A    between atoms: _583  and  _584
REMARK  218  A    between atoms: _583  and  _586
REMARK  219  A    between atoms: _586  and  _587
REMARK  220  A    between atoms: _587  and  _588
REMARK  221  A    between atoms: _591  and  _593
REMARK  222  A    between atoms: _593  and  _594
REMARK  223  A    between atoms: _593  and  _596
REMARK  224  A    between atoms: _596  and  _597
REMARK  225  A    between atoms: _597  and  _598
REMARK  226  A    between atoms: _598  and  _599
REMARK  227  A    between atoms: _599  and  _600
REMARK  228  A    between atoms: _604  and  _606
REMARK  229  A    between atoms: _606  and  _607
REMARK  230  A    between atoms: _606  and  _609
REMARK  231  A    between atoms: _609  and  _610
REMARK  232  A    between atoms: _616  and  _618
REMARK  233  A    between atoms: _618  and  _619
REMARK  234  A    between atoms: _618  and  _621
REMARK  235  A    between atoms: _621  and  _622
REMARK  236  A    between atoms: _628  and  _630
REMARK  237  A    between atoms: _630  and  _631
REMARK  238  A    between atoms: _633  and  _635
REMARK  239  A    between atoms: _635  and  _636
REMARK  240  A    between atoms: _635  and  _638
REMARK  241  A    between atoms: _641  and  _643
REMARK  242  A    between atoms: _643  and  _644
REMARK  243  A    between atoms: _643  and  _646
REMARK  244  A    between atoms: _646  and  _647
REMARK  245  A    between atoms: _647  and  _648
REMARK  246  A    between atoms: _648  and  _649
REMARK  247  A    between atoms: _649  and  _650
REMARK  248  A    between atoms: _654  and  _656
REMARK  249  A    between atoms: _656  and  _657
REMARK  250  A    between atoms: _656  and  _659
REMARK  251  A    between atoms: _659  and  _660
REMARK  252  A    between atoms: _666  and  _668
REMARK  253  A    between atoms: _668  and  _669
REMARK  254  A    between atoms: _668  and  _671
REMARK  255  A    between atoms: _671  and  _672
REMARK  256  A    between atoms: _677  and  _679
REMARK  257  A    between atoms: _679  and  _680
REMARK  258  A    between atoms: _679  and  _682
REMARK  259  A    between atoms: _682  and  _683
REMARK  260  A    between atoms: _688  and  _690
REMARK  261  A    between atoms: _690  and  _691
REMARK  262  A    between atoms: _690  and  _693
REMARK  263  A    between atoms: _696  and  _698
REMARK  264  A    between atoms: _698  and  _699
REMARK  265  A    between atoms: _698  and  _701
REMARK  266  A    between atoms: _701  and  _702
REMARK  267  A    between atoms: _706  and  _707
REMARK  268  A    between atoms: _712  and  _714
REMARK  269  A    between atoms: _714  and  _715
REMARK  270  A    between atoms: _714  and  _717
REMARK  271  A    between atoms: _717  and  _718
REMARK  272  A    between atoms: _723  and  _724
REMARK  273  A    between atoms: _726  and  _728
REMARK  274  A    between atoms: _728  and  _729
REMARK  275  A    between atoms: _728  and  _731
REMARK  276  A    between atoms: _731  and  _732
REMARK  277  A    between atoms: _732  and  _733
REMARK  278  A    between atoms: _733  and  _734
REMARK  279  A    between atoms: _743  and  _745
REMARK  280  A    between atoms: _745  and  _746
REMARK  281  A    between atoms: _745  and  _748
REMARK  282  A    between atoms: _748  and  _749
REMARK  283  A    between atoms: _754  and  _755
REMARK  284  A    between atoms: _757  and  _759
REMARK  285  A    between atoms: _759  and  _760
REMARK  286  A    between atoms: _759  and  _762
REMARK  287  A    between atoms: _762  and  _763
REMARK  288  A    between atoms: _769  and  _771
REMARK  289  A    between atoms: _771  and  _772
REMARK  290  A    between atoms: _771  and  _774
REMARK  291  A    between atoms: _774  and  _775
REMARK  292  A    between atoms: _777  and  _779
REMARK  293  A    between atoms: _779  and  _780
REMARK  294  A    between atoms: _779  and  _782
REMARK  295  A    between atoms: _782  and  _783
REMARK  296  A    between atoms: _789  and  _791
REMARK  297  A    between atoms: _791  and  _792
REMARK  298  A    between atoms: _791  and  _794
REMARK  299  A    between atoms: _794  and  _795
REMARK  300  A    between atoms: _795  and  _796
REMARK                            x       y       z     vdW  Elec       q    Type
REMARK                         _______ _______ _______ _____ _____    ______ ____
ROOT
ATOM      1  CA  THR A   3      -6.816 -11.743 -18.194  0.00  0.00    +0.176 C 
ENDROOT
BRANCH   1   2
ATOM      2  C   THR A   3      -5.753 -11.706 -17.080  0.00  0.00    +0.246 C 
ATOM      3  N   PRO A   4      -5.886 -12.598 -16.077  0.00  0.00    -0.272 N 
ATOM      4  CA  PRO A   4      -5.123 -12.460 -14.835  0.00  0.00    +0.152 C 
ATOM      5  CB  PRO A   4      -5.792 -13.462 -13.889  0.00  0.00    +0.031 C 
ATOM      6  CG  PRO A   4      -7.159 -13.735 -14.521  0.00  0.00    +0.024 C 
ATOM      7  CD  PRO A   4      -6.882 -13.680 -15.982  0.00  0.00    +0.094 C 
ATOM      8  O   THR A   3      -4.863 -10.855 -17.102  0.00  0.00    -0.273 OA
BRANCH   4   9
ATOM      9  C   PRO A   4      -3.640 -12.762 -14.996  0.00  0.00    +0.241 C 
ATOM     10  N   TYR A   5      -2.851 -12.299 -14.031  0.00  0.00    -0.298 N 
ATOM     11  H   TYR A   5      -3.277 -11.870 -13.185  0.00  0.00    +0.150 HD
ATOM     12  O   PRO A   4      -3.229 -13.385 -15.986  0.00  0.00    -0.273 OA
BRANCH  10  13
ATOM     13  CA  TYR A   5      -1.400 -12.381 -14.137  0.00  0.00    +0.141 C 
BRANCH  13  14
ATOM     14  C   TYR A   5      -0.692 -13.218 -13.076  0.00  0.00    +0.227 C 
ATOM     15  O   TYR A   5       0.398 -13.725 -13.323  0.00  0.00    -0.286 OA
ENDBRANCH  13  14
BRANCH  13  16
ATOM     16  CB  TYR A   5      -0.796 -10.978 -14.174  0.00  0.00    +0.054 C 
BRANCH  16  17
ATOM     17  CG  TYR A   5       0.391 -10.909 -15.082  0.00  0.00    -0.020 A 
ATOM     18  CD2 TYR A   5       1.689 -10.926 -14.562  0.00  0.00    -0.001 A 
ATOM     19  CE2 TYR A   5       2.802 -10.857 -15.405  0.00  0.00    +0.036 A 
ATOM     20  CZ  TYR A   5       2.618 -10.810 -16.769  0.00  0.00    +0.134 A 
ATOM     21  CE1 TYR A   5       1.337 -10.802 -17.321  0.00  0.00    +0.036 A 
ATOM     22  CD1 TYR A   5       0.228 -10.855 -16.468  0.00  0.00    -0.001 A 
BRANCH  20  23
ATOM     23  OH  TYR A   5       3.717 -10.736 -17.581  0.00  0.00    -0.506 OA
ATOM     24  HH  TYR A   5       3.426 -10.710 -18.527  0.00  0.00    +0.292 HD
ENDBRANCH  20  23
ENDBRANCH  16  17
ENDBRANCH  13  16
ENDBRANCH  10  13
ENDBRANCH   4   9
ENDBRANCH   1   2
BRANCH   1  27
ATOM     25  C   VAL A   2      -8.475 -10.020 -18.594  0.00  0.00    +0.241 C 
ATOM     26  O   VAL A   2      -9.404 -10.762 -18.258  0.00  0.00    -0.273 OA
ATOM     27  N   THR A   3      -7.204 -10.393 -18.566  0.00  0.00    -0.295 N 
ATOM     28  H   THR A   3      -6.467  -9.703 -18.816  0.00  0.00    +0.150 HD
BRANCH  25  29
ATOM     29  CA  VAL A   2      -8.723  -8.590 -19.054  0.00  0.00    +0.148 C 
BRANCH  29  31
ATOM     30  C   ASN A   1      -7.878  -8.882 -21.373  0.00  0.00    +0.239 C 
ATOM     31  N   VAL A   2      -7.960  -8.190 -20.237  0.00  0.00    -0.297 N 
ATOM     32  H   VAL A   2      -7.439  -7.291 -20.187  0.00  0.00    +0.150 HD
ATOM     33  O   ASN A   1      -8.232 -10.067 -21.515  0.00  0.00    -0.274 OA
BRANCH  30  34
ATOM     34  CA  ASN A   1      -7.321  -8.074 -22.527  0.00  0.00    +0.154 C 
BRANCH  34  35
ATOM     35  N   ASN A   1      -6.782  -6.801 -22.056  0.00  0.00    -0.238 NA
ATOM     36  H   ASN A   1      -5.804  -6.755 -21.706  0.00  0.00    +0.142 HD
ENDBRANCH  34  35
BRANCH  34  37
ATOM     37  CB  ASN A   1      -6.282  -8.828 -23.344  0.00  0.00    +0.111 C 
BRANCH  37  38
ATOM     38  CG  ASN A   1      -6.080  -8.203 -24.706  0.00  0.00    +0.221 C 
ATOM     39  ND2 ASN A   1      -5.047  -7.366 -24.840  0.00  0.00    -0.329 N 
ATOM     40 HD21 ASN A   1      -4.410  -7.193 -24.036  0.00  0.00    +0.145 HD
ATOM     41 HD22 ASN A   1      -4.880  -6.887 -25.748  0.00  0.00    +0.145 HD
ATOM     42  OD1 ASN A   1      -6.865  -8.444 -25.624  0.00  0.00    -0.275 OA
ENDBRANCH  37  38
ENDBRANCH  34  37
ENDBRANCH  30  34
ENDBRANCH  29  31
BRANCH  29  43
ATOM     43  CB  VAL A   2     -10.245  -8.247 -19.205  0.00  0.00    +0.027 C 
ATOM     44  CG2 VAL A   2     -10.419  -6.752 -19.342  0.00  0.00    +0.002 C 
ATOM     45  CG1 VAL A   2     -10.874  -8.944 -20.413  0.00  0.00    +0.002 C 
ENDBRANCH  29  43
ENDBRANCH  25  29
ENDBRANCH   1  27
BRANCH   1  46
ATOM     46  CB  THR A   3      -6.382 -12.555 -19.442  0.00  0.00    +0.137 C 
ATOM     47  CG2 THR A   3      -5.128 -11.980 -20.085  0.00  0.00    +0.034 C 
BRANCH  46  48
ATOM     48  OG1 THR A   3      -6.176 -13.925 -19.081  0.00  0.00    -0.382 OA
ATOM     49  HG1 THR A   3      -5.468 -13.980 -18.391  0.00  0.00    +0.210 HD
ENDBRANCH  46  48
ENDBRANCH   1  46
TORSDOF 17
REMARK  Name = ../refined-set-2016/2xyd/2xyd_pocket.pdb
REMARK  300 active torsions:
REMARK  status: ('A' for Active; 'I' for Inactive)
REMARK    1  A    between atoms: _1  and  _3
REMARK    2  A    between atoms: _3  and  _4
REMARK    3  A    between atoms: _3  and  _6
REMARK    4  A    between atoms: _6  and  _7
REMARK    5  A    between atoms: _10  and  _12
REMARK    6  A    between atoms: _12  and  _13
REMARK    7  A    between atoms: _12  and  _15
REMARK    8  A    between atoms: _15  and  _16
REMARK    9  A    between atoms: _21  and  _22
REMARK   10  A    between atoms: _24  and  _26
REMARK   11  A    between atoms: _26  and  _27
REMARK   12  A    between atoms: _26  and  _29
REMARK   13  A    between atoms: _29  and  _30
REMARK   14  A    between atoms: _35  and  _36
REMARK   15  A    between atoms: _38  and  _40
REMARK   16  A    between atoms: _40  and  _41
REMARK   17  A    between atoms: _40  and  _43
REMARK   18  A    between atoms: _43  and  _44
REMARK   19  A    between atoms: _47  and  _49
REMARK   20  A    between atoms: _49  and  _50
REMARK   21  A    between atoms: _49  and  _52
REMARK   22  A    between atoms: _52  and  _53
REMARK   23  A    between atoms: _63  and  _65
REMARK   24  A    between atoms: _65  and  _66
REMARK   25  A    between atoms: _65  and  _68
REMARK   26  A    between atoms: _68  and  _69
REMARK   27  A    between atoms: _69  and  _70
REMARK   28  A    between atoms: _75  and  _77
REMARK   29  A    between atoms: _77  and  _78
REMARK   30  A    between atoms: _77  and  _80
REMARK   31  A    between atoms: _80  and  _81
REMARK   32  A    between atoms: _83  and  _85
REMARK   33  A    between atoms: _85  and  _86
REMARK   34  A    between atoms: _85  and  _88
REMARK   35  A    between atoms: _88  and  _89
REMARK   36  A    between atoms: _99  and  _101
REMARK   37  A    between atoms: _101  and  _102
REMARK   38  A    between atoms: _101  and  _104
REMARK   39  A    between atoms: _104  and  _105
REMARK   40  A    between atoms: _105  and  _106
REMARK   41  A    between atoms: _109  and  _111
REMARK   42  A    between atoms: _111  and  _112
REMARK   43  A    between atoms: _111  and  _114
REMARK   44  A    between atoms: _114  and  _115
REMARK   45  A    between atoms: _120  and  _122
REMARK   46  A    between atoms: _122  and  _123
REMARK   47  A    between atoms: _122  and  _125
REMARK   48  A    between atoms: _128  and  _130
REMARK   49  A    between atoms: _130  and  _131
REMARK   50  A    between atoms: _130  and  _133
REMARK   51  A    between atoms: _135  and  _137
REMARK   52  A    between atoms: _137  and  _138
REMARK   53  A    between atoms: _137  and  _140
REMARK   54  A    between atoms: _140  and  _141
REMARK   55  A    between atoms: _146  and  _148
REMARK   56  A    between atoms: _148  and  _149
REMARK   57  A    between atoms: _152  and  _154
REMARK   58  A    between atoms: _154  and  _155
REMARK   59  A    between atoms: _154  and  _157
REMARK   60  A    between atoms: _157  and  _158
REMARK   61  A    between atoms: _160  and  _162
REMARK   62  A    between atoms: _162  and  _163
REMARK   63  A    between atoms: _166  and  _168
REMARK   64  A    between atoms: _168  and  _169
REMARK   65  A    between atoms: _168  and  _171
REMARK   66  A    between atoms: _171  and  _172
REMARK   67  A    between atoms: _182  and  _184
REMARK   68  A    between atoms: _184  and  _185
REMARK   69  A    between atoms: _184  and  _187
REMARK   70  A    between atoms: _187  and  _188
REMARK   71  A    between atoms: _191  and  _193
REMARK   72  A    between atoms: _193  and  _194
REMARK   73  A    between atoms: _193  and  _196
REMARK   74  A    between atoms: _196  and  _197
REMARK   75  A    between atoms: _202  and  _203
REMARK   76  A    between atoms: _205  and  _207
REMARK   77  A    between atoms: _207  and  _208
REMARK   78  A    between atoms: _207  and  _210
REMARK   79  A    between atoms: _210  and  _211
REMARK   80  A    between atoms: _211  and  _212
REMARK   81  A    between atoms: _212  and  _213
REMARK   82  A    between atoms: _222  and  _224
REMARK   83  A    between atoms: _224  and  _225
REMARK   84  A    between atoms: _224  and  _227
REMARK   85  A    between atoms: _227  and  _228
REMARK   86  A    between atoms: _231  and  _233
REMARK   87  A    between atoms: _233  and  _234
REMARK   88  A    between atoms: _233  and  _236
REMARK   89  A    between atoms: _236  and  _237
REMARK   90  A    between atoms: _237  and  _238
REMARK   91  A    between atoms: _238  and  _239
REMARK   92  A    between atoms: _239  and  _240
REMARK   93  A    between atoms: _244  and  _246
REMARK   94  A    between atoms: _246  and  _247
REMARK   95  A    between atoms: _246  and  _249
REMARK   96  A    between atoms: _249  and  _250
REMARK   97  A    between atoms: _250  and  _251
REMARK   98  A    between atoms: _256  and  _258
REMARK   99  A    between atoms: _258  and  _259
REMARK  100  A    between atoms: _258  and  _261
REMARK  101  A    between atoms: _261  and  _262
REMARK  102  A    between atoms: _262  and  _263
REMARK  103  A    between atoms: _263  and  _264
REMARK  104  A    between atoms: _273  and  _275
REMARK  105  A    between atoms: _275  and  _276
REMARK  106  A    between atoms: _275  and  _278
REMARK  107  A    between atoms: _278  and  _279
REMARK  108  A    between atoms: _282  and  _284
REMARK  109  A    between atoms: _284  and  _285
REMARK  110  A    between atoms: _284  and  _287
REMARK  111  A    between atoms: _287  and  _288
REMARK  112  A    between atoms: _288  and  _289
REMARK  113  A    between atoms: _291  and  _293
REMARK  114  A    between atoms: _293  and  _294
REMARK  115  A    between atoms: _293  and  _296
REMARK  116  A    between atoms: _296  and  _297
REMARK  117  A    between atoms: _300  and  _302
REMARK  118  A    between atoms: _302  and  _303
REMARK  119  A    between atoms: _302  and  _305
REMARK  120  A    between atoms: _305  and  _306
REMARK  121  A    between atoms: _306  and  _307
REMARK  122  A    between atoms: _312  and  _314
REMARK  123  A    between atoms: _314  and  _315
REMARK  124  A    between atoms: _314  and  _317
REMARK  125  A    between atoms: _317  and  _318
REMARK  126  A    between atoms: _321  and  _323
REMARK  127  A    between atoms: _323  and  _324
REMARK  128  A    between atoms: _323  and  _326
REMARK  129  A    between atoms: _326  and  _327
REMARK  130  A    between atoms: _329  and  _331
REMARK  131  A    between atoms: _331  and  _332
REMARK  132  A    between atoms: _331  and  _334
REMARK  133  A    between atoms: _334  and  _335
REMARK  134  A    between atoms: _338  and  _340
REMARK  135  A    between atoms: _340  and  _341
REMARK  136  A    between atoms: _340  and  _343
REMARK  137  A    between atoms: _346  and  _348
REMARK  138  A    between atoms: _348  and  _349
REMARK  139  A    between atoms: _348  and  _351
REMARK  140  A    between atoms: _351  and  _352
REMARK  141  A    between atoms: _357  and  _359
REMARK  142  A    between atoms: _370  and  _373
REMARK  143  A    between atoms: _373  and  _374
REMARK  144  A    between atoms: _374  and  _375
REMARK  145  A    between atoms: _380  and  _383
REMARK  146  A    between atoms: _383  and  _384
REMARK  147  A    between atoms: _384  and  _385
REMARK  148  A    between atoms: _394  and  _395
REMARK  149  A    between atoms: _403  and  _405
REMARK  150  A    between atoms: _405  and  _406
REMARK  151  A    between atoms: _405  and  _408
REMARK  152  A    between atoms: _408  and  _409
REMARK  153  A    between atoms: _412  and  _414
REMARK  154  A    between atoms: _414  and  _415
REMARK  155  A    between atoms: _414  and  _417
REMARK  156  A    between atoms: _417  and  _418
REMARK  157  A    between atoms: _423  and  _424
REMARK  158  A    between atoms: _426  and  _428
REMARK  159  A    between atoms: _428  and  _429
REMARK  160  A    between atoms: _428  and  _431
REMARK  161  A    between atoms: _431  and  _432
REMARK  162  A    between atoms: _437  and  _438
REMARK  163  A    between atoms: _440  and  _442
REMARK  164  A    between atoms: _442  and  _443
REMARK  165  A    between atoms: _442  and  _445
REMARK  166  A    between atoms: _445  and  _446
REMARK  167  A    between atoms: _451  and  _452
REMARK  168  A    between atoms: _454  and  _456
REMARK  169  A    between atoms: _456  and  _457
REMARK  170  A    between atoms: _456  and  _459
REMARK  171  A    between atoms: _459  and  _460
REMARK  172  A    between atoms: _460  and  _461
REMARK  173  A    between atoms: _461  and  _462
REMARK  174  A    between atoms: _471  and  _473
REMARK  175  A    between atoms: _473  and  _474
REMARK  176  A    between atoms: _473  and  _476
REMARK  177  A    between atoms: _476  and  _477
REMARK  178  A    between atoms: _477  and  _478
REMARK  179  A    between atoms: _478  and  _479
REMARK  180  A    between atoms: _488  and  _490
REMARK  181  A    between atoms: _490  and  _491
REMARK  182  A    between atoms: _493  and  _495
REMARK  183  A    between atoms: _495  and  _496
REMARK  184  A    between atoms: _499  and  _501
REMARK  185  A    between atoms: _501  and  _502
REMARK  186  A    between atoms: _501  and  _504
REMARK  187  A    between atoms: _504  and  _505
REMARK  188  A    between atoms: _511  and  _512
REMARK  189  A    between atoms: _517  and  _519
REMARK  190  A    between atoms: _519  and  _520
REMARK  191  A    between atoms: _522  and  _524
REMARK  192  A    between atoms: _524  and  _525
REMARK  193  A    between atoms: _524  and  _527
REMARK  194  A    between atoms: _527  and  _528
REMARK  195  A    between atoms: _534  and  _536
REMARK  196  A    between atoms: _536  and  _537
REMARK  197  A    between atoms: _536  and  _539
REMARK  198  A    between atoms: _539  and  _540
REMARK  199  A    between atoms: _545  and  _547
REMARK  200  A    between atoms: _547  and  _548
REMARK  201  A    between atoms: _547  and  _550
REMARK  202  A    between atoms: _550  and  _551
REMARK  203  A    between atoms: _551  and  _552
REMARK  204  A    between atoms: _552  and  _553
REMARK  205  A    between atoms: _553  and  ZN_801
REMARK  206  A    between atoms: _555  and  _557
REMARK  207  A    between atoms: _557  and  _558
REMARK  208  A    between atoms: _561  and  _563
REMARK  209  A    between atoms: _563  and  _564
REMARK  210  A    between atoms: _566  and  _568
REMARK  211  A    between atoms: _568  and  _569
REMARK  212  A    between atoms: _568  and  _571
REMARK  213  A    between atoms: _571  and  _572
REMARK  214  A    between atoms: _575  and  _577
REMARK  215  A    between atoms: _577  and  _578
REMARK  216  A    between atoms: _581  and  _583
REMARK  217  A    between atoms: _583  and  _584
REMARK  218  A    between atoms: _583  and  _586
REMARK  219  A    between atoms: _586  and  _587
REMARK  220  A    between atoms: _587  and  _588
REMARK  221  A    between atoms: _591  and  _593
REMARK  222  A    between atoms: _593  and  _594
REMARK  223  A    between atoms: _593  and  _596
REMARK  224  A    between atoms: _596  and  _597
REMARK  225  A    between atoms: _597  and  _598
REMARK  226  A    between atoms: _598  and  _599
REMARK  227  A    between atoms: _599  and  _600
REMARK  228  A    between atoms: _604  and  _606
REMARK  229  A    between atoms: _606  and  _607
REMARK  230  A    between atoms: _606  and  _609
REMARK  231  A    between atoms: _609  and  _610
REMARK  232  A    between atoms: _616  and  _618
REMARK  233  A    between atoms: _618  and  _619
REMARK  234  A    between atoms: _618  and  _621
REMARK  235  A    between atoms: _621  and  _622
REMARK  236  A    between atoms: _628  and  _630
REMARK  237  A    between atoms: _630  and  _631
REMARK  238  A    between atoms: _633  and  _635
REMARK  239  A    between atoms: _635  and  _636
REMARK  240  A    between atoms: _635  and  _638
REMARK  241  A    between atoms: _641  and  _643
REMARK  242  A    between atoms: _643  and  _644
REMARK  243  A    between atoms: _643  and  _646
REMARK  244  A    between atoms: _646  and  _647
REMARK  245  A    between atoms: _647  and  _648
REMARK  246  A    between atoms: _648  and  _649
REMARK  247  A    between atoms: _649  and  _650
REMARK  248  A    between atoms: _654  and  _656
REMARK  249  A    between atoms: _656  and  _657
REMARK  250  A    between atoms: _656  and  _659
REMARK  251  A    between atoms: _659  and  _660
REMARK  252  A    between atoms: _666  and  _668
REMARK  253  A    between atoms: _668  and  _669
REMARK  254  A    between atoms: _668  and  _671
REMARK  255  A    between atoms: _671  and  _672
REMARK  256  A    between atoms: _677  and  _679
REMARK  257  A    between atoms: _679  and  _680
REMARK  258  A    between atoms: _679  and  _682
REMARK  259  A    between atoms: _682  and  _683
REMARK  260  A    between atoms: _688  and  _690
REMARK  261  A    between atoms: _690  and  _691
REMARK  262  A    between atoms: _690  and  _693
REMARK  263  A    between atoms: _696  and  _698
REMARK  264  A    between atoms: _698  and  _699
REMARK  265  A    between atoms: _698  and  _701
REMARK  266  A    between atoms: _701  and  _702
REMARK  267  A    between atoms: _706  and  _707
REMARK  268  A    between atoms: _712  and  _714
REMARK  269  A    between atoms: _714  and  _715
REMARK  270  A    between atoms: _714  and  _717
REMARK  271  A    between atoms: _717  and  _718
REMARK  272  A    between atoms: _723  and  _724
REMARK  273  A    between atoms: _726  and  _728
REMARK  274  A    between atoms: _728  and  _729
REMARK  275  A    between atoms: _728  and  _731
REMARK  276  A    between atoms: _731  and  _732
REMARK  277  A    between atoms: _732  and  _733
REMARK  278  A    between atoms: _733  and  _734
REMARK  279  A    between atoms: _743  and  _745
REMARK  280  A    between atoms: _745  and  _746
REMARK  281  A    between atoms: _745  and  _748
REMARK  282  A    between atoms: _748  and  _749
REMARK  283  A    between atoms: _754  and  _755
REMARK  284  A    between atoms: _757  and  _759
REMARK  285  A    between atoms: _759  and  _760
REMARK  286  A    between atoms: _759  and  _762
REMARK  287  A    between atoms: _762  and  _763
REMARK  288  A    between atoms: _769  and  _771
REMARK  289  A    between atoms: _771  and  _772
REMARK  290  A    between atoms: _771  and  _774
REMARK  291  A    between atoms: _774  and  _775
REMARK  292  A    between atoms: _777  and  _779
REMARK  293  A    between atoms: _779  and  _780
REMARK  294  A    between atoms: _779  and  _782
REMARK  295  A    between atoms: _782  and  _783
REMARK  296  A    between atoms: _789  and  _791
REMARK  297  A    between atoms: _791  and  _792
REMARK  298  A    between atoms: _791  and  _794
REMARK  299  A    between atoms: _794  and  _795
REMARK  300  A    between atoms: _795  and  _796
REMARK                            x       y       z     vdW  Elec       q    Type
REMARK                         _______ _______ _______ _____ _____    ______ ____
ROOT
ATOM      1  CA  TYR A   2       2.725 -16.531 -14.081  0.00  0.00    +0.153 C 
ENDROOT
BRANCH   1   4
ATOM      2  C   ARG A   1       0.732 -17.550 -13.121  0.00  0.00    +0.238 C 
ATOM      3  O   ARG A   1       1.278 -18.650 -13.029  0.00  0.00    -0.274 OA
ATOM      4  N   TYR A   2       1.344 -16.467 -13.603  0.00  0.00    -0.297 N 
ATOM      5  H   TYR A   2       0.831 -15.563 -13.639  0.00  0.00    +0.150 HD
BRANCH   2   6
ATOM      6  CA  ARG A   1      -0.726 -17.394 -12.714  0.00  0.00    +0.145 C 
BRANCH   6   7
ATOM      7  N   ARG A   1      -1.042 -16.082 -12.106  0.00  0.00    -0.238 NA
ATOM      8  H   ARG A   1      -1.894 -15.580 -12.427  0.00  0.00    +0.142 HD
ENDBRANCH   6   7
BRANCH   6   9
ATOM      9  CB  ARG A   1      -1.616 -17.685 -13.945  0.00  0.00    +0.030 C 
BRANCH   9  10
ATOM     10  CG  ARG A   1      -1.549 -16.631 -15.086  0.00  0.00    +0.045 C 
BRANCH  10  11
ATOM     11  CD  ARG A   1      -2.633 -16.876 -16.180  0.00  0.00    +0.174 C 
BRANCH  11  12
ATOM     12  NE  ARG A   1      -3.955 -16.922 -15.550  0.00  0.00    -0.265 N 
ATOM     13  HE  ARG A   1      -4.008 -16.670 -14.542  0.00  0.00    +0.259 HD
ATOM     14  CZ  ARG A   1      -5.095 -17.258 -16.152  0.00  0.00    +0.342 C 
ATOM     15  NH2 ARG A   1      -6.209 -17.280 -15.437  0.00  0.00    -0.292 N 
ATOM     16 HH21 ARG A   1      -6.183 -17.038 -14.426  0.00  0.00    +0.255 HD
ATOM     17 HH22 ARG A   1      -7.110 -17.539 -15.886  0.00  0.00    +0.255 HD
ATOM     18  NH1 ARG A   1      -5.128 -17.578 -17.448  0.00  0.00    -0.292 N 
ATOM     19 HH11 ARG A   1      -6.030 -17.837 -17.897  0.00  0.00    +0.255 HD
ATOM     20 HH12 ARG A   1      -4.252 -17.568 -18.009  0.00  0.00    +0.255 HD
ENDBRANCH  11  12
ENDBRANCH  10  11
ENDBRANCH   9  10
ENDBRANCH   6   9
ENDBRANCH   2   6
ENDBRANCH   1   4
BRANCH   1  21
ATOM     21  C   TYR A   2       3.745 -16.529 -12.939  0.00  0.00    +0.241 C 
ATOM     22  N   PHE A   3       3.477 -15.780 -11.877  0.00  0.00    -0.298 N 
ATOM     23  H   PHE A   3       2.666 -15.129 -11.887  0.00  0.00    +0.150 HD
ATOM     24  O   TYR A   2       4.769 -17.198 -13.024  0.00  0.00    -0.273 OA
BRANCH  22  25
ATOM     25  CA  PHE A   3       4.331 -15.875 -10.689  0.00  0.00    +0.141 C 
BRANCH  25  26
ATOM     26  C   PHE A   3       4.231 -17.272 -10.085  0.00  0.00    +0.227 C 
ATOM     27  O   PHE A   3       5.229 -17.852  -9.705  0.00  0.00    -0.286 OA
ENDBRANCH  25  26
BRANCH  25  28
ATOM     28  CB  PHE A   3       3.970 -14.815  -9.642  0.00  0.00    +0.054 C 
BRANCH  28  29
ATOM     29  CG  PHE A   3       4.809 -14.902  -8.394  0.00  0.00    -0.020 A 
ATOM     30  CD2 PHE A   3       4.316 -15.535  -7.257  0.00  0.00    -0.004 A 
ATOM     31  CE2 PHE A   3       5.099 -15.635  -6.083  0.00  0.00    -0.000 A 
ATOM     32  CZ  PHE A   3       6.396 -15.101  -6.069  0.00  0.00    -0.000 A 
ATOM     33  CE1 PHE A   3       6.901 -14.464  -7.211  0.00  0.00    -0.000 A 
ATOM     34  CD1 PHE A   3       6.104 -14.372  -8.371  0.00  0.00    -0.004 A 
ENDBRANCH  28  29
ENDBRANCH  25  28
ENDBRANCH  22  25
ENDBRANCH   1  21
BRANCH   1  35
ATOM     35  CB  TYR A   2       3.039 -15.431 -15.095  0.00  0.00    +0.055 C 
BRANCH  35  36
ATOM     36  CG  TYR A   2       2.129 -15.395 -16.305  0.00  0.00    -0.020 A 
ATOM     37  CD2 TYR A   2       1.250 -14.333 -16.511  0.00  0.00    -0.001 A 
ATOM     38  CE2 TYR A   2       0.386 -14.307 -17.638  0.00  0.00    +0.036 A 
ATOM     39  CZ  TYR A   2       0.441 -15.342 -18.571  0.00  0.00    +0.134 A 
ATOM     40  CE1 TYR A   2       1.310 -16.409 -18.386  0.00  0.00    +0.036 A 
ATOM     41  CD1 TYR A   2       2.147 -16.436 -17.250  0.00  0.00    -0.001 A 
BRANCH  39  42
ATOM     42  OH  TYR A   2      -0.379 -15.344 -19.686  0.00  0.00    -0.506 OA
ATOM     43  HH  TYR A   2      -0.197 -16.153 -20.227  0.00  0.00    +0.292 HD
ENDBRANCH  39  42
ENDBRANCH  35  36
ENDBRANCH   1  35
TORSDOF 15
REMARK  Name = ../refined-set-2016/2xyd/2xyd_pocket.pdb
REMARK  300 active torsions:
REMARK  status: ('A' for Active; 'I' for Inactive)
REMARK    1  A    between atoms: _1  and  _3
REMARK    2  A    between atoms: _3  and  _4
REMARK    3  A    between atoms: _3  and  _6
REMARK    4  A    between atoms: _6  and  _7
REMARK    5  A    between atoms: _10  and  _12
REMARK    6  A    between atoms: _12  and  _13
REMARK    7  A    between atoms: _12  and  _15
REMARK    8  A    between atoms: _15  and  _16
REMARK    9  A    between atoms: _21  and  _22
REMARK   10  A    between atoms: _24  and  _26
REMARK   11  A    between atoms: _26  and  _27
REMARK   12  A    between atoms: _26  and  _29
REMARK   13  A    between atoms: _29  and  _30
REMARK   14  A    between atoms: _35  and  _36
REMARK   15  A    between atoms: _38  and  _40
REMARK   16  A    between atoms: _40  and  _41
REMARK   17  A    between atoms: _40  and  _43
REMARK   18  A    between atoms: _43  and  _44
REMARK   19  A    between atoms: _47  and  _49
REMARK   20  A    between atoms: _49  and  _50
REMARK   21  A    between atoms: _49  and  _52
REMARK   22  A    between atoms: _52  and  _53
REMARK   23  A    between atoms: _63  and  _65
REMARK   24  A    between atoms: _65  and  _66
REMARK   25  A    between atoms: _65  and  _68
REMARK   26  A    between atoms: _68  and  _69
REMARK   27  A    between atoms: _69  and  _70
REMARK   28  A    between atoms: _75  and  _77
REMARK   29  A    between atoms: _77  and  _78
REMARK   30  A    between atoms: _77  and  _80
REMARK   31  A    between atoms: _80  and  _81
REMARK   32  A    between atoms: _83  and  _85
REMARK   33  A    between atoms: _85  and  _86
REMARK   34  A    between atoms: _85  and  _88
REMARK   35  A    between atoms: _88  and  _89
REMARK   36  A    between atoms: _99  and  _101
REMARK   37  A    between atoms: _101  and  _102
REMARK   38  A    between atoms: _101  and  _104
REMARK   39  A    between atoms: _104  and  _105
REMARK   40  A    between atoms: _105  and  _106
REMARK   41  A    between atoms: _109  and  _111
REMARK   42  A    between atoms: _111  and  _112
REMARK   43  A    between atoms: _111  and  _114
REMARK   44  A    between atoms: _114  and  _115
REMARK   45  A    between atoms: _120  and  _122
REMARK   46  A    between atoms: _122  and  _123
REMARK   47  A    between atoms: _122  and  _125
REMARK   48  A    between atoms: _128  and  _130
REMARK   49  A    between atoms: _130  and  _131
REMARK   50  A    between atoms: _130  and  _133
REMARK   51  A    between atoms: _135  and  _137
REMARK   52  A    between atoms: _137  and  _138
REMARK   53  A    between atoms: _137  and  _140
REMARK   54  A    between atoms: _140  and  _141
REMARK   55  A    between atoms: _146  and  _148
REMARK   56  A    between atoms: _148  and  _149
REMARK   57  A    between atoms: _152  and  _154
REMARK   58  A    between atoms: _154  and  _155
REMARK   59  A    between atoms: _154  and  _157
REMARK   60  A    between atoms: _157  and  _158
REMARK   61  A    between atoms: _160  and  _162
REMARK   62  A    between atoms: _162  and  _163
REMARK   63  A    between atoms: _166  and  _168
REMARK   64  A    between atoms: _168  and  _169
REMARK   65  A    between atoms: _168  and  _171
REMARK   66  A    between atoms: _171  and  _172
REMARK   67  A    between atoms: _182  and  _184
REMARK   68  A    between atoms: _184  and  _185
REMARK   69  A    between atoms: _184  and  _187
REMARK   70  A    between atoms: _187  and  _188
REMARK   71  A    between atoms: _191  and  _193
REMARK   72  A    between atoms: _193  and  _194
REMARK   73  A    between atoms: _193  and  _196
REMARK   74  A    between atoms: _196  and  _197
REMARK   75  A    between atoms: _202  and  _203
REMARK   76  A    between atoms: _205  and  _207
REMARK   77  A    between atoms: _207  and  _208
REMARK   78  A    between atoms: _207  and  _210
REMARK   79  A    between atoms: _210  and  _211
REMARK   80  A    between atoms: _211  and  _212
REMARK   81  A    between atoms: _212  and  _213
REMARK   82  A    between atoms: _222  and  _224
REMARK   83  A    between atoms: _224  and  _225
REMARK   84  A    between atoms: _224  and  _227
REMARK   85  A    between atoms: _227  and  _228
REMARK   86  A    between atoms: _231  and  _233
REMARK   87  A    between atoms: _233  and  _234
REMARK   88  A    between atoms: _233  and  _236
REMARK   89  A    between atoms: _236  and  _237
REMARK   90  A    between atoms: _237  and  _238
REMARK   91  A    between atoms: _238  and  _239
REMARK   92  A    between atoms: _239  and  _240
REMARK   93  A    between atoms: _244  and  _246
REMARK   94  A    between atoms: _246  and  _247
REMARK   95  A    between atoms: _246  and  _249
REMARK   96  A    between atoms: _249  and  _250
REMARK   97  A    between atoms: _250  and  _251
REMARK   98  A    between atoms: _256  and  _258
REMARK   99  A    between atoms: _258  and  _259
REMARK  100  A    between atoms: _258  and  _261
REMARK  101  A    between atoms: _261  and  _262
REMARK  102  A    between atoms: _262  and  _263
REMARK  103  A    between atoms: _263  and  _264
REMARK  104  A    between atoms: _273  and  _275
REMARK  105  A    between atoms: _275  and  _276
REMARK  106  A    between atoms: _275  and  _278
REMARK  107  A    between atoms: _278  and  _279
REMARK  108  A    between atoms: _282  and  _284
REMARK  109  A    between atoms: _284  and  _285
REMARK  110  A    between atoms: _284  and  _287
REMARK  111  A    between atoms: _287  and  _288
REMARK  112  A    between atoms: _288  and  _289
REMARK  113  A    between atoms: _291  and  _293
REMARK  114  A    between atoms: _293  and  _294
REMARK  115  A    between atoms: _293  and  _296
REMARK  116  A    between atoms: _296  and  _297
REMARK  117  A    between atoms: _300  and  _302
REMARK  118  A    between atoms: _302  and  _303
REMARK  119  A    between atoms: _302  and  _305
REMARK  120  A    between atoms: _305  and  _306
REMARK  121  A    between atoms: _306  and  _307
REMARK  122  A    between atoms: _312  and  _314
REMARK  123  A    between atoms: _314  and  _315
REMARK  124  A    between atoms: _314  and  _317
REMARK  125  A    between atoms: _317  and  _318
REMARK  126  A    between atoms: _321  and  _323
REMARK  127  A    between atoms: _323  and  _324
REMARK  128  A    between atoms: _323  and  _326
REMARK  129  A    between atoms: _326  and  _327
REMARK  130  A    between atoms: _329  and  _331
REMARK  131  A    between atoms: _331  and  _332
REMARK  132  A    between atoms: _331  and  _334
REMARK  133  A    between atoms: _334  and  _335
REMARK  134  A    between atoms: _338  and  _340
REMARK  135  A    between atoms: _340  and  _341
REMARK  136  A    between atoms: _340  and  _343
REMARK  137  A    between atoms: _346  and  _348
REMARK  138  A    between atoms: _348  and  _349
REMARK  139  A    between atoms: _348  and  _351
REMARK  140  A    between atoms: _351  and  _352
REMARK  141  A    between atoms: _357  and  _359
REMARK  142  A    between atoms: _370  and  _373
REMARK  143  A    between atoms: _373  and  _374
REMARK  144  A    between atoms: _374  and  _375
REMARK  145  A    between atoms: _380  and  _383
REMARK  146  A    between atoms: _383  and  _384
REMARK  147  A    between atoms: _384  and  _385
REMARK  148  A    between atoms: _394  and  _395
REMARK  149  A    between atoms: _403  and  _405
REMARK  150  A    between atoms: _405  and  _406
REMARK  151  A    between atoms: _405  and  _408
REMARK  152  A    between atoms: _408  and  _409
REMARK  153  A    between atoms: _412  and  _414
REMARK  154  A    between atoms: _414  and  _415
REMARK  155  A    between atoms: _414  and  _417
REMARK  156  A    between atoms: _417  and  _418
REMARK  157  A    between atoms: _423  and  _424
REMARK  158  A    between atoms: _426  and  _428
REMARK  159  A    between atoms: _428  and  _429
REMARK  160  A    between atoms: _428  and  _431
REMARK  161  A    between atoms: _431  and  _432
REMARK  162  A    between atoms: _437  and  _438
REMARK  163  A    between atoms: _440  and  _442
REMARK  164  A    between atoms: _442  and  _443
REMARK  165  A    between atoms: _442  and  _445
REMARK  166  A    between atoms: _445  and  _446
REMARK  167  A    between atoms: _451  and  _452
REMARK  168  A    between atoms: _454  and  _456
REMARK  169  A    between atoms: _456  and  _457
REMARK  170  A    between atoms: _456  and  _459
REMARK  171  A    between atoms: _459  and  _460
REMARK  172  A    between atoms: _460  and  _461
REMARK  173  A    between atoms: _461  and  _462
REMARK  174  A    between atoms: _471  and  _473
REMARK  175  A    between atoms: _473  and  _474
REMARK  176  A    between atoms: _473  and  _476
REMARK  177  A    between atoms: _476  and  _477
REMARK  178  A    between atoms: _477  and  _478
REMARK  179  A    between atoms: _478  and  _479
REMARK  180  A    between atoms: _488  and  _490
REMARK  181  A    between atoms: _490  and  _491
REMARK  182  A    between atoms: _493  and  _495
REMARK  183  A    between atoms: _495  and  _496
REMARK  184  A    between atoms: _499  and  _501
REMARK  185  A    between atoms: _501  and  _502
REMARK  186  A    between atoms: _501  and  _504
REMARK  187  A    between atoms: _504  and  _505
REMARK  188  A    between atoms: _511  and  _512
REMARK  189  A    between atoms: _517  and  _519
REMARK  190  A    between atoms: _519  and  _520
REMARK  191  A    between atoms: _522  and  _524
REMARK  192  A    between atoms: _524  and  _525
REMARK  193  A    between atoms: _524  and  _527
REMARK  194  A    between atoms: _527  and  _528
REMARK  195  A    between atoms: _534  and  _536
REMARK  196  A    between atoms: _536  and  _537
REMARK  197  A    between atoms: _536  and  _539
REMARK  198  A    between atoms: _539  and  _540
REMARK  199  A    between atoms: _545  and  _547
REMARK  200  A    between atoms: _547  and  _548
REMARK  201  A    between atoms: _547  and  _550
REMARK  202  A    between atoms: _550  and  _551
REMARK  203  A    between atoms: _551  and  _552
REMARK  204  A    between atoms: _552  and  _553
REMARK  205  A    between atoms: _553  and  ZN_801
REMARK  206  A    between atoms: _555  and  _557
REMARK  207  A    between atoms: _557  and  _558
REMARK  208  A    between atoms: _561  and  _563
REMARK  209  A    between atoms: _563  and  _564
REMARK  210  A    between atoms: _566  and  _568
REMARK  211  A    between atoms: _568  and  _569
REMARK  212  A    between atoms: _568  and  _571
REMARK  213  A    between atoms: _571  and  _572
REMARK  214  A    between atoms: _575  and  _577
REMARK  215  A    between atoms: _577  and  _578
REMARK  216  A    between atoms: _581  and  _583
REMARK  217  A    between atoms: _583  and  _584
REMARK  218  A    between atoms: _583  and  _586
REMARK  219  A    between atoms: _586  and  _587
REMARK  220  A    between atoms: _587  and  _588
REMARK  221  A    between atoms: _591  and  _593
REMARK  222  A    between atoms: _593  and  _594
REMARK  223  A    between atoms: _593  and  _596
REMARK  224  A    between atoms: _596  and  _597
REMARK  225  A    between atoms: _597  and  _598
REMARK  226  A    between atoms: _598  and  _599
REMARK  227  A    between atoms: _599  and  _600
REMARK  228  A    between atoms: _604  and  _606
REMARK  229  A    between atoms: _606  and  _607
REMARK  230  A    between atoms: _606  and  _609
REMARK  231  A    between atoms: _609  and  _610
REMARK  232  A    between atoms: _616  and  _618
REMARK  233  A    between atoms: _618  and  _619
REMARK  234  A    between atoms: _618  and  _621
REMARK  235  A    between atoms: _621  and  _622
REMARK  236  A    between atoms: _628  and  _630
REMARK  237  A    between atoms: _630  and  _631
REMARK  238  A    between atoms: _633  and  _635
REMARK  239  A    between atoms: _635  and  _636
REMARK  240  A    between atoms: _635  and  _638
REMARK  241  A    between atoms: _641  and  _643
REMARK  242  A    between atoms: _643  and  _644
REMARK  243  A    between atoms: _643  and  _646
REMARK  244  A    between atoms: _646  and  _647
REMARK  245  A    between atoms: _647  and  _648
REMARK  246  A    between atoms: _648  and  _649
REMARK  247  A    between atoms: _649  and  _650
REMARK  248  A    between atoms: _654  and  _656
REMARK  249  A    between atoms: _656  and  _657
REMARK  250  A    between atoms: _656  and  _659
REMARK  251  A    between atoms: _659  and  _660
REMARK  252  A    between atoms: _666  and  _668
REMARK  253  A    between atoms: _668  and  _669
REMARK  254  A    between atoms: _668  and  _671
REMARK  255  A    between atoms: _671  and  _672
REMARK  256  A    between atoms: _677  and  _679
REMARK  257  A    between atoms: _679  and  _680
REMARK  258  A    between atoms: _679  and  _682
REMARK  259  A    between atoms: _682  and  _683
REMARK  260  A    between atoms: _688  and  _690
REMARK  261  A    between atoms: _690  and  _691
REMARK  262  A    between atoms: _690  and  _693
REMARK  263  A    between atoms: _696  and  _698
REMARK  264  A    between atoms: _698  and  _699
REMARK  265  A    between atoms: _698  and  _701
REMARK  266  A    between atoms: _701  and  _702
REMARK  267  A    between atoms: _706  and  _707
REMARK  268  A    between atoms: _712  and  _714
REMARK  269  A    between atoms: _714  and  _715
REMARK  270  A    between atoms: _714  and  _717
REMARK  271  A    between atoms: _717  and  _718
REMARK  272  A    between atoms: _723  and  _724
REMARK  273  A    between atoms: _726  and  _728
REMARK  274  A    between atoms: _728  and  _729
REMARK  275  A    between atoms: _728  and  _731
REMARK  276  A    between atoms: _731  and  _732
REMARK  277  A    between atoms: _732  and  _733
REMARK  278  A    between atoms: _733  and  _734
REMARK  279  A    between atoms: _743  and  _745
REMARK  280  A    between atoms: _745  and  _746
REMARK  281  A    between atoms: _745  and  _748
REMARK  282  A    between atoms: _748  and  _749
REMARK  283  A    between atoms: _754  and  _755
REMARK  284  A    between atoms: _757  and  _759
REMARK  285  A    between atoms: _759  and  _760
REMARK  286  A    between atoms: _759  and  _762
REMARK  287  A    between atoms: _762  and  _763
REMARK  288  A    between atoms: _769  and  _771
REMARK  289  A    between atoms: _771  and  _772
REMARK  290  A    between atoms: _771  and  _774
REMARK  291  A    between atoms: _774  and  _775
REMARK  292  A    between atoms: _777  and  _779
REMARK  293  A    between atoms: _779  and  _780
REMARK  294  A    between atoms: _779  and  _782
REMARK  295  A    between atoms: _782  and  _783
REMARK  296  A    between atoms: _789  and  _791
REMARK  297  A    between atoms: _791  and  _792
REMARK  298  A    between atoms: _791  and  _794
REMARK  299  A    between atoms: _794  and  _795
REMARK  300  A    between atoms: _795  and  _796
REMARK                            x       y       z     vdW  Elec       q    Type
REMARK                         _______ _______ _______ _____ _____    ______ ____
ROOT
ATOM      1  C   SER A   1       5.598 -20.934 -12.625  0.00  0.00    +0.241 C 
ATOM      2  N   PHE A   2       6.162 -19.769 -12.332  0.00  0.00    -0.298 N 
ATOM      3  H   PHE A   2       5.566 -18.934 -12.160  0.00  0.00    +0.150 HD
ATOM      4  O   SER A   1       6.254 -21.935 -12.861  0.00  0.00    -0.274 OA
ENDROOT
BRANCH   1   5
ATOM      5  CA  SER A   1       4.065 -21.001 -12.646  0.00  0.00    +0.174 C 
BRANCH   5   6
ATOM      6  N   SER A   1       3.447 -20.013 -11.770  0.00  0.00    -0.236 NA
ATOM      7  H   SER A   1       2.982 -19.169 -12.162  0.00  0.00    +0.142 HD
ENDBRANCH   5   6
BRANCH   5   8
ATOM      8  CB  SER A   1       3.530 -20.924 -14.064  0.00  0.00    +0.163 C 
BRANCH   8   9
ATOM      9  OG  SER A   1       4.354 -20.131 -14.856  0.00  0.00    -0.380 OA
ATOM     10  H   SER A   1       3.989 -20.093 -15.775  0.00  0.00    +0.211 HD
ENDBRANCH   8   9
ENDBRANCH   5   8
ENDBRANCH   1   5
BRANCH   2  11
ATOM     11  CA  PHE A   2       7.627 -19.653 -12.250  0.00  0.00    +0.141 C 
BRANCH  11  12
ATOM     12  C   PHE A   2       8.210 -20.421 -11.055  0.00  0.00    +0.227 C 
ATOM     13  O   PHE A   2       9.317 -20.916 -11.127  0.00  0.00    -0.286 OA
ENDBRANCH  11  12
BRANCH  11  14
ATOM     14  CB  PHE A   2       8.078 -18.184 -12.292  0.00  0.00    +0.054 C 
BRANCH  14  15
ATOM     15  CG  PHE A   2       8.326 -17.657 -13.701  0.00  0.00    -0.020 A 
ATOM     16  CD2 PHE A   2       9.555 -17.083 -14.044  0.00  0.00    -0.004 A 
ATOM     17  CE2 PHE A   2       9.784 -16.594 -15.337  0.00  0.00    -0.000 A 
ATOM     18  CZ  PHE A   2       8.778 -16.684 -16.315  0.00  0.00    -0.000 A 
ATOM     19  CE1 PHE A   2       7.558 -17.256 -15.983  0.00  0.00    -0.000 A 
ATOM     20  CD1 PHE A   2       7.335 -17.739 -14.680  0.00  0.00    -0.004 A 
ENDBRANCH  14  15
ENDBRANCH  11  14
ENDBRANCH   2  11
TORSDOF 8
REMARK  Name = ../refined-set-2016/2xyd/2xyd_pocket.pdb
REMARK  300 active torsions:
REMARK  status: ('A' for Active; 'I' for Inactive)
REMARK    1  A    between atoms: _1  and  _3
REMARK    2  A    between atoms: _3  and  _4
REMARK    3  A    between atoms: _3  and  _6
REMARK    4  A    between atoms: _6  and  _7
REMARK    5  A    between atoms: _10  and  _12
REMARK    6  A    between atoms: _12  and  _13
REMARK    7  A    between atoms: _12  and  _15
REMARK    8  A    between atoms: _15  and  _16
REMARK    9  A    between atoms: _21  and  _22
REMARK   10  A    between atoms: _24  and  _26
REMARK   11  A    between atoms: _26  and  _27
REMARK   12  A    between atoms: _26  and  _29
REMARK   13  A    between atoms: _29  and  _30
REMARK   14  A    between atoms: _35  and  _36
REMARK   15  A    between atoms: _38  and  _40
REMARK   16  A    between atoms: _40  and  _41
REMARK   17  A    between atoms: _40  and  _43
REMARK   18  A    between atoms: _43  and  _44
REMARK   19  A    between atoms: _47  and  _49
REMARK   20  A    between atoms: _49  and  _50
REMARK   21  A    between atoms: _49  and  _52
REMARK   22  A    between atoms: _52  and  _53
REMARK   23  A    between atoms: _63  and  _65
REMARK   24  A    between atoms: _65  and  _66
REMARK   25  A    between atoms: _65  and  _68
REMARK   26  A    between atoms: _68  and  _69
REMARK   27  A    between atoms: _69  and  _70
REMARK   28  A    between atoms: _75  and  _77
REMARK   29  A    between atoms: _77  and  _78
REMARK   30  A    between atoms: _77  and  _80
REMARK   31  A    between atoms: _80  and  _81
REMARK   32  A    between atoms: _83  and  _85
REMARK   33  A    between atoms: _85  and  _86
REMARK   34  A    between atoms: _85  and  _88
REMARK   35  A    between atoms: _88  and  _89
REMARK   36  A    between atoms: _99  and  _101
REMARK   37  A    between atoms: _101  and  _102
REMARK   38  A    between atoms: _101  and  _104
REMARK   39  A    between atoms: _104  and  _105
REMARK   40  A    between atoms: _105  and  _106
REMARK   41  A    between atoms: _109  and  _111
REMARK   42  A    between atoms: _111  and  _112
REMARK   43  A    between atoms: _111  and  _114
REMARK   44  A    between atoms: _114  and  _115
REMARK   45  A    between atoms: _120  and  _122
REMARK   46  A    between atoms: _122  and  _123
REMARK   47  A    between atoms: _122  and  _125
REMARK   48  A    between atoms: _128  and  _130
REMARK   49  A    between atoms: _130  and  _131
REMARK   50  A    between atoms: _130  and  _133
REMARK   51  A    between atoms: _135  and  _137
REMARK   52  A    between atoms: _137  and  _138
REMARK   53  A    between atoms: _137  and  _140
REMARK   54  A    between atoms: _140  and  _141
REMARK   55  A    between atoms: _146  and  _148
REMARK   56  A    between atoms: _148  and  _149
REMARK   57  A    between atoms: _152  and  _154
REMARK   58  A    between atoms: _154  and  _155
REMARK   59  A    between atoms: _154  and  _157
REMARK   60  A    between atoms: _157  and  _158
REMARK   61  A    between atoms: _160  and  _162
REMARK   62  A    between atoms: _162  and  _163
REMARK   63  A    between atoms: _166  and  _168
REMARK   64  A    between atoms: _168  and  _169
REMARK   65  A    between atoms: _168  and  _171
REMARK   66  A    between atoms: _171  and  _172
REMARK   67  A    between atoms: _182  and  _184
REMARK   68  A    between atoms: _184  and  _185
REMARK   69  A    between atoms: _184  and  _187
REMARK   70  A    between atoms: _187  and  _188
REMARK   71  A    between atoms: _191  and  _193
REMARK   72  A    between atoms: _193  and  _194
REMARK   73  A    between atoms: _193  and  _196
REMARK   74  A    between atoms: _196  and  _197
REMARK   75  A    between atoms: _202  and  _203
REMARK   76  A    between atoms: _205  and  _207
REMARK   77  A    between atoms: _207  and  _208
REMARK   78  A    between atoms: _207  and  _210
REMARK   79  A    between atoms: _210  and  _211
REMARK   80  A    between atoms: _211  and  _212
REMARK   81  A    between atoms: _212  and  _213
REMARK   82  A    between atoms: _222  and  _224
REMARK   83  A    between atoms: _224  and  _225
REMARK   84  A    between atoms: _224  and  _227
REMARK   85  A    between atoms: _227  and  _228
REMARK   86  A    between atoms: _231  and  _233
REMARK   87  A    between atoms: _233  and  _234
REMARK   88  A    between atoms: _233  and  _236
REMARK   89  A    between atoms: _236  and  _237
REMARK   90  A    between atoms: _237  and  _238
REMARK   91  A    between atoms: _238  and  _239
REMARK   92  A    between atoms: _239  and  _240
REMARK   93  A    between atoms: _244  and  _246
REMARK   94  A    between atoms: _246  and  _247
REMARK   95  A    between atoms: _246  and  _249
REMARK   96  A    between atoms: _249  and  _250
REMARK   97  A    between atoms: _250  and  _251
REMARK   98  A    between atoms: _256  and  _258
REMARK   99  A    between atoms: _258  and  _259
REMARK  100  A    between atoms: _258  and  _261
REMARK  101  A    between atoms: _261  and  _262
REMARK  102  A    between atoms: _262  and  _263
REMARK  103  A    between atoms: _263  and  _264
REMARK  104  A    between atoms: _273  and  _275
REMARK  105  A    between atoms: _275  and  _276
REMARK  106  A    between atoms: _275  and  _278
REMARK  107  A    between atoms: _278  and  _279
REMARK  108  A    between atoms: _282  and  _284
REMARK  109  A    between atoms: _284  and  _285
REMARK  110  A    between atoms: _284  and  _287
REMARK  111  A    between atoms: _287  and  _288
REMARK  112  A    between atoms: _288  and  _289
REMARK  113  A    between atoms: _291  and  _293
REMARK  114  A    between atoms: _293  and  _294
REMARK  115  A    between atoms: _293  and  _296
REMARK  116  A    between atoms: _296  and  _297
REMARK  117  A    between atoms: _300  and  _302
REMARK  118  A    between atoms: _302  and  _303
REMARK  119  A    between atoms: _302  and  _305
REMARK  120  A    between atoms: _305  and  _306
REMARK  121  A    between atoms: _306  and  _307
REMARK  122  A    between atoms: _312  and  _314
REMARK  123  A    between atoms: _314  and  _315
REMARK  124  A    between atoms: _314  and  _317
REMARK  125  A    between atoms: _317  and  _318
REMARK  126  A    between atoms: _321  and  _323
REMARK  127  A    between atoms: _323  and  _324
REMARK  128  A    between atoms: _323  and  _326
REMARK  129  A    between atoms: _326  and  _327
REMARK  130  A    between atoms: _329  and  _331
REMARK  131  A    between atoms: _331  and  _332
REMARK  132  A    between atoms: _331  and  _334
REMARK  133  A    between atoms: _334  and  _335
REMARK  134  A    between atoms: _338  and  _340
REMARK  135  A    between atoms: _340  and  _341
REMARK  136  A    between atoms: _340  and  _343
REMARK  137  A    between atoms: _346  and  _348
REMARK  138  A    between atoms: _348  and  _349
REMARK  139  A    between atoms: _348  and  _351
REMARK  140  A    between atoms: _351  and  _352
REMARK  141  A    between atoms: _357  and  _359
REMARK  142  A    between atoms: _370  and  _373
REMARK  143  A    between atoms: _373  and  _374
REMARK  144  A    between atoms: _374  and  _375
REMARK  145  A    between atoms: _380  and  _383
REMARK  146  A    between atoms: _383  and  _384
REMARK  147  A    between atoms: _384  and  _385
REMARK  148  A    between atoms: _394  and  _395
REMARK  149  A    between atoms: _403  and  _405
REMARK  150  A    between atoms: _405  and  _406
REMARK  151  A    between atoms: _405  and  _408
REMARK  152  A    between atoms: _408  and  _409
REMARK  153  A    between atoms: _412  and  _414
REMARK  154  A    between atoms: _414  and  _415
REMARK  155  A    between atoms: _414  and  _417
REMARK  156  A    between atoms: _417  and  _418
REMARK  157  A    between atoms: _423  and  _424
REMARK  158  A    between atoms: _426  and  _428
REMARK  159  A    between atoms: _428  and  _429
REMARK  160  A    between atoms: _428  and  _431
REMARK  161  A    between atoms: _431  and  _432
REMARK  162  A    between atoms: _437  and  _438
REMARK  163  A    between atoms: _440  and  _442
REMARK  164  A    between atoms: _442  and  _443
REMARK  165  A    between atoms: _442  and  _445
REMARK  166  A    between atoms: _445  and  _446
REMARK  167  A    between atoms: _451  and  _452
REMARK  168  A    between atoms: _454  and  _456
REMARK  169  A    between atoms: _456  and  _457
REMARK  170  A    between atoms: _456  and  _459
REMARK  171  A    between atoms: _459  and  _460
REMARK  172  A    between atoms: _460  and  _461
REMARK  173  A    between atoms: _461  and  _462
REMARK  174  A    between atoms: _471  and  _473
REMARK  175  A    between atoms: _473  and  _474
REMARK  176  A    between atoms: _473  and  _476
REMARK  177  A    between atoms: _476  and  _477
REMARK  178  A    between atoms: _477  and  _478
REMARK  179  A    between atoms: _478  and  _479
REMARK  180  A    between atoms: _488  and  _490
REMARK  181  A    between atoms: _490  and  _491
REMARK  182  A    between atoms: _493  and  _495
REMARK  183  A    between atoms: _495  and  _496
REMARK  184  A    between atoms: _499  and  _501
REMARK  185  A    between atoms: _501  and  _502
REMARK  186  A    between atoms: _501  and  _504
REMARK  187  A    between atoms: _504  and  _505
REMARK  188  A    between atoms: _511  and  _512
REMARK  189  A    between atoms: _517  and  _519
REMARK  190  A    between atoms: _519  and  _520
REMARK  191  A    between atoms: _522  and  _524
REMARK  192  A    between atoms: _524  and  _525
REMARK  193  A    between atoms: _524  and  _527
REMARK  194  A    between atoms: _527  and  _528
REMARK  195  A    between atoms: _534  and  _536
REMARK  196  A    between atoms: _536  and  _537
REMARK  197  A    between atoms: _536  and  _539
REMARK  198  A    between atoms: _539  and  _540
REMARK  199  A    between atoms: _545  and  _547
REMARK  200  A    between atoms: _547  and  _548
REMARK  201  A    between atoms: _547  and  _550
REMARK  202  A    between atoms: _550  and  _551
REMARK  203  A    between atoms: _551  and  _552
REMARK  204  A    between atoms: _552  and  _553
REMARK  205  A    between atoms: _553  and  ZN_801
REMARK  206  A    between atoms: _555  and  _557
REMARK  207  A    between atoms: _557  and  _558
REMARK  208  A    between atoms: _561  and  _563
REMARK  209  A    between atoms: _563  and  _564
REMARK  210  A    between atoms: _566  and  _568
REMARK  211  A    between atoms: _568  and  _569
REMARK  212  A    between atoms: _568  and  _571
REMARK  213  A    between atoms: _571  and  _572
REMARK  214  A    between atoms: _575  and  _577
REMARK  215  A    between atoms: _577  and  _578
REMARK  216  A    between atoms: _581  and  _583
REMARK  217  A    between atoms: _583  and  _584
REMARK  218  A    between atoms: _583  and  _586
REMARK  219  A    between atoms: _586  and  _587
REMARK  220  A    between atoms: _587  and  _588
REMARK  221  A    between atoms: _591  and  _593
REMARK  222  A    between atoms: _593  and  _594
REMARK  223  A    between atoms: _593  and  _596
REMARK  224  A    between atoms: _596  and  _597
REMARK  225  A    between atoms: _597  and  _598
REMARK  226  A    between atoms: _598  and  _599
REMARK  227  A    between atoms: _599  and  _600
REMARK  228  A    between atoms: _604  and  _606
REMARK  229  A    between atoms: _606  and  _607
REMARK  230  A    between atoms: _606  and  _609
REMARK  231  A    between atoms: _609  and  _610
REMARK  232  A    between atoms: _616  and  _618
REMARK  233  A    between atoms: _618  and  _619
REMARK  234  A    between atoms: _618  and  _621
REMARK  235  A    between atoms: _621  and  _622
REMARK  236  A    between atoms: _628  and  _630
REMARK  237  A    between atoms: _630  and  _631
REMARK  238  A    between atoms: _633  and  _635
REMARK  239  A    between atoms: _635  and  _636
REMARK  240  A    between atoms: _635  and  _638
REMARK  241  A    between atoms: _641  and  _643
REMARK  242  A    between atoms: _643  and  _644
REMARK  243  A    between atoms: _643  and  _646
REMARK  244  A    between atoms: _646  and  _647
REMARK  245  A    between atoms: _647  and  _648
REMARK  246  A    between atoms: _648  and  _649
REMARK  247  A    between atoms: _649  and  _650
REMARK  248  A    between atoms: _654  and  _656
REMARK  249  A    between atoms: _656  and  _657
REMARK  250  A    between atoms: _656  and  _659
REMARK  251  A    between atoms: _659  and  _660
REMARK  252  A    between atoms: _666  and  _668
REMARK  253  A    between atoms: _668  and  _669
REMARK  254  A    between atoms: _668  and  _671
REMARK  255  A    between atoms: _671  and  _672
REMARK  256  A    between atoms: _677  and  _679
REMARK  257  A    between atoms: _679  and  _680
REMARK  258  A    between atoms: _679  and  _682
REMARK  259  A    between atoms: _682  and  _683
REMARK  260  A    between atoms: _688  and  _690
REMARK  261  A    between atoms: _690  and  _691
REMARK  262  A    between atoms: _690  and  _693
REMARK  263  A    between atoms: _696  and  _698
REMARK  264  A    between atoms: _698  and  _699
REMARK  265  A    between atoms: _698  and  _701
REMARK  266  A    between atoms: _701  and  _702
REMARK  267  A    between atoms: _706  and  _707
REMARK  268  A    between atoms: _712  and  _714
REMARK  269  A    between atoms: _714  and  _715
REMARK  270  A    between atoms: _714  and  _717
REMARK  271  A    between atoms: _717  and  _718
REMARK  272  A    between atoms: _723  and  _724
REMARK  273  A    between atoms: _726  and  _728
REMARK  274  A    between atoms: _728  and  _729
REMARK  275  A    between atoms: _728  and  _731
REMARK  276  A    between atoms: _731  and  _732
REMARK  277  A    between atoms: _732  and  _733
REMARK  278  A    between atoms: _733  and  _734
REMARK  279  A    between atoms: _743  and  _745
REMARK  280  A    between atoms: _745  and  _746
REMARK  281  A    between atoms: _745  and  _748
REMARK  282  A    between atoms: _748  and  _749
REMARK  283  A    between atoms: _754  and  _755
REMARK  284  A    between atoms: _757  and  _759
REMARK  285  A    between atoms: _759  and  _760
REMARK  286  A    between atoms: _759  and  _762
REMARK  287  A    between atoms: _762  and  _763
REMARK  288  A    between atoms: _769  and  _771
REMARK  289  A    between atoms: _771  and  _772
REMARK  290  A    between atoms: _771  and  _774
REMARK  291  A    between atoms: _774  and  _775
REMARK  292  A    between atoms: _777  and  _779
REMARK  293  A    between atoms: _779  and  _780
REMARK  294  A    between atoms: _779  and  _782
REMARK  295  A    between atoms: _782  and  _783
REMARK  296  A    between atoms: _789  and  _791
REMARK  297  A    between atoms: _791  and  _792
REMARK  298  A    between atoms: _791  and  _794
REMARK  299  A    between atoms: _794  and  _795
REMARK  300  A    between atoms: _795  and  _796
REMARK                            x       y       z     vdW  Elec       q    Type
REMARK                         _______ _______ _______ _____ _____    ______ ____
ROOT
ATOM      1  CB  GLN A   1       8.170 -24.136 -14.189  0.00  0.00    +0.035 C 
ENDROOT
BRANCH   1   2
ATOM      2  CA  GLN A   1       7.947 -25.038 -12.972  0.00  0.00    +0.134 C 
BRANCH   2   3
ATOM      3  N   GLN A   1       7.172 -24.372 -11.914  0.00  0.00    -0.239 NA
ATOM      4  H   GLN A   1       6.958 -23.357 -11.982  0.00  0.00    +0.142 HD
ENDBRANCH   2   3
BRANCH   2   5
ATOM      5  C   GLN A   1       9.271 -25.680 -12.503  0.00  0.00    +0.224 C 
ATOM      6  O   GLN A   1       9.730 -26.650 -13.100  0.00  0.00    -0.287 OA
ENDBRANCH   2   5
ENDBRANCH   1   2
BRANCH   1   7
ATOM      7  CG  GLN A   1       9.156 -22.989 -14.025  0.00  0.00    +0.087 C 
BRANCH   7   8
ATOM      8  CD  GLN A   1       9.107 -22.039 -15.214  0.00  0.00    +0.219 C 
ATOM      9  NE2 GLN A   1       7.956 -21.396 -15.416  0.00  0.00    -0.329 N 
ATOM     10 HE21 GLN A   1       7.167 -21.520 -14.750  0.00  0.00    +0.145 HD
ATOM     11 HE22 GLN A   1       7.847 -20.771 -16.240  0.00  0.00    +0.145 HD
ATOM     12  OE1 GLN A   1      10.066 -21.927 -15.969  0.00  0.00    -0.275 OA
ENDBRANCH   7   8
ENDBRANCH   1   7
TORSDOF 5
REMARK  Name = ../refined-set-2016/2xyd/2xyd_pocket.pdb
REMARK  300 active torsions:
REMARK  status: ('A' for Active; 'I' for Inactive)
REMARK    1  A    between atoms: _1  and  _3
REMARK    2  A    between atoms: _3  and  _4
REMARK    3  A    between atoms: _3  and  _6
REMARK    4  A    between atoms: _6  and  _7
REMARK    5  A    between atoms: _10  and  _12
REMARK    6  A    between atoms: _12  and  _13
REMARK    7  A    between atoms: _12  and  _15
REMARK    8  A    between atoms: _15  and  _16
REMARK    9  A    between atoms: _21  and  _22
REMARK   10  A    between atoms: _24  and  _26
REMARK   11  A    between atoms: _26  and  _27
REMARK   12  A    between atoms: _26  and  _29
REMARK   13  A    between atoms: _29  and  _30
REMARK   14  A    between atoms: _35  and  _36
REMARK   15  A    between atoms: _38  and  _40
REMARK   16  A    between atoms: _40  and  _41
REMARK   17  A    between atoms: _40  and  _43
REMARK   18  A    between atoms: _43  and  _44
REMARK   19  A    between atoms: _47  and  _49
REMARK   20  A    between atoms: _49  and  _50
REMARK   21  A    between atoms: _49  and  _52
REMARK   22  A    between atoms: _52  and  _53
REMARK   23  A    between atoms: _63  and  _65
REMARK   24  A    between atoms: _65  and  _66
REMARK   25  A    between atoms: _65  and  _68
REMARK   26  A    between atoms: _68  and  _69
REMARK   27  A    between atoms: _69  and  _70
REMARK   28  A    between atoms: _75  and  _77
REMARK   29  A    between atoms: _77  and  _78
REMARK   30  A    between atoms: _77  and  _80
REMARK   31  A    between atoms: _80  and  _81
REMARK   32  A    between atoms: _83  and  _85
REMARK   33  A    between atoms: _85  and  _86
REMARK   34  A    between atoms: _85  and  _88
REMARK   35  A    between atoms: _88  and  _89
REMARK   36  A    between atoms: _99  and  _101
REMARK   37  A    between atoms: _101  and  _102
REMARK   38  A    between atoms: _101  and  _104
REMARK   39  A    between atoms: _104  and  _105
REMARK   40  A    between atoms: _105  and  _106
REMARK   41  A    between atoms: _109  and  _111
REMARK   42  A    between atoms: _111  and  _112
REMARK   43  A    between atoms: _111  and  _114
REMARK   44  A    between atoms: _114  and  _115
REMARK   45  A    between atoms: _120  and  _122
REMARK   46  A    between atoms: _122  and  _123
REMARK   47  A    between atoms: _122  and  _125
REMARK   48  A    between atoms: _128  and  _130
REMARK   49  A    between atoms: _130  and  _131
REMARK   50  A    between atoms: _130  and  _133
REMARK   51  A    between atoms: _135  and  _137
REMARK   52  A    between atoms: _137  and  _138
REMARK   53  A    between atoms: _137  and  _140
REMARK   54  A    between atoms: _140  and  _141
REMARK   55  A    between atoms: _146  and  _148
REMARK   56  A    between atoms: _148  and  _149
REMARK   57  A    between atoms: _152  and  _154
REMARK   58  A    between atoms: _154  and  _155
REMARK   59  A    between atoms: _154  and  _157
REMARK   60  A    between atoms: _157  and  _158
REMARK   61  A    between atoms: _160  and  _162
REMARK   62  A    between atoms: _162  and  _163
REMARK   63  A    between atoms: _166  and  _168
REMARK   64  A    between atoms: _168  and  _169
REMARK   65  A    between atoms: _168  and  _171
REMARK   66  A    between atoms: _171  and  _172
REMARK   67  A    between atoms: _182  and  _184
REMARK   68  A    between atoms: _184  and  _185
REMARK   69  A    between atoms: _184  and  _187
REMARK   70  A    between atoms: _187  and  _188
REMARK   71  A    between atoms: _191  and  _193
REMARK   72  A    between atoms: _193  and  _194
REMARK   73  A    between atoms: _193  and  _196
REMARK   74  A    between atoms: _196  and  _197
REMARK   75  A    between atoms: _202  and  _203
REMARK   76  A    between atoms: _205  and  _207
REMARK   77  A    between atoms: _207  and  _208
REMARK   78  A    between atoms: _207  and  _210
REMARK   79  A    between atoms: _210  and  _211
REMARK   80  A    between atoms: _211  and  _212
REMARK   81  A    between atoms: _212  and  _213
REMARK   82  A    between atoms: _222  and  _224
REMARK   83  A    between atoms: _224  and  _225
REMARK   84  A    between atoms: _224  and  _227
REMARK   85  A    between atoms: _227  and  _228
REMARK   86  A    between atoms: _231  and  _233
REMARK   87  A    between atoms: _233  and  _234
REMARK   88  A    between atoms: _233  and  _236
REMARK   89  A    between atoms: _236  and  _237
REMARK   90  A    between atoms: _237  and  _238
REMARK   91  A    between atoms: _238  and  _239
REMARK   92  A    between atoms: _239  and  _240
REMARK   93  A    between atoms: _244  and  _246
REMARK   94  A    between atoms: _246  and  _247
REMARK   95  A    between atoms: _246  and  _249
REMARK   96  A    between atoms: _249  and  _250
REMARK   97  A    between atoms: _250  and  _251
REMARK   98  A    between atoms: _256  and  _258
REMARK   99  A    between atoms: _258  and  _259
REMARK  100  A    between atoms: _258  and  _261
REMARK  101  A    between atoms: _261  and  _262
REMARK  102  A    between atoms: _262  and  _263
REMARK  103  A    between atoms: _263  and  _264
REMARK  104  A    between atoms: _273  and  _275
REMARK  105  A    between atoms: _275  and  _276
REMARK  106  A    between atoms: _275  and  _278
REMARK  107  A    between atoms: _278  and  _279
REMARK  108  A    between atoms: _282  and  _284
REMARK  109  A    between atoms: _284  and  _285
REMARK  110  A    between atoms: _284  and  _287
REMARK  111  A    between atoms: _287  and  _288
REMARK  112  A    between atoms: _288  and  _289
REMARK  113  A    between atoms: _291  and  _293
REMARK  114  A    between atoms: _293  and  _294
REMARK  115  A    between atoms: _293  and  _296
REMARK  116  A    between atoms: _296  and  _297
REMARK  117  A    between atoms: _300  and  _302
REMARK  118  A    between atoms: _302  and  _303
REMARK  119  A    between atoms: _302  and  _305
REMARK  120  A    between atoms: _305  and  _306
REMARK  121  A    between atoms: _306  and  _307
REMARK  122  A    between atoms: _312  and  _314
REMARK  123  A    between atoms: _314  and  _315
REMARK  124  A    between atoms: _314  and  _317
REMARK  125  A    between atoms: _317  and  _318
REMARK  126  A    between atoms: _321  and  _323
REMARK  127  A    between atoms: _323  and  _324
REMARK  128  A    between atoms: _323  and  _326
REMARK  129  A    between atoms: _326  and  _327
REMARK  130  A    between atoms: _329  and  _331
REMARK  131  A    between atoms: _331  and  _332
REMARK  132  A    between atoms: _331  and  _334
REMARK  133  A    between atoms: _334  and  _335
REMARK  134  A    between atoms: _338  and  _340
REMARK  135  A    between atoms: _340  and  _341
REMARK  136  A    between atoms: _340  and  _343
REMARK  137  A    between atoms: _346  and  _348
REMARK  138  A    between atoms: _348  and  _349
REMARK  139  A    between atoms: _348  and  _351
REMARK  140  A    between atoms: _351  and  _352
REMARK  141  A    between atoms: _357  and  _359
REMARK  142  A    between atoms: _370  and  _373
REMARK  143  A    between atoms: _373  and  _374
REMARK  144  A    between atoms: _374  and  _375
REMARK  145  A    between atoms: _380  and  _383
REMARK  146  A    between atoms: _383  and  _384
REMARK  147  A    between atoms: _384  and  _385
REMARK  148  A    between atoms: _394  and  _395
REMARK  149  A    between atoms: _403  and  _405
REMARK  150  A    between atoms: _405  and  _406
REMARK  151  A    between atoms: _405  and  _408
REMARK  152  A    between atoms: _408  and  _409
REMARK  153  A    between atoms: _412  and  _414
REMARK  154  A    between atoms: _414  and  _415
REMARK  155  A    between atoms: _414  and  _417
REMARK  156  A    between atoms: _417  and  _418
REMARK  157  A    between atoms: _423  and  _424
REMARK  158  A    between atoms: _426  and  _428
REMARK  159  A    between atoms: _428  and  _429
REMARK  160  A    between atoms: _428  and  _431
REMARK  161  A    between atoms: _431  and  _432
REMARK  162  A    between atoms: _437  and  _438
REMARK  163  A    between atoms: _440  and  _442
REMARK  164  A    between atoms: _442  and  _443
REMARK  165  A    between atoms: _442  and  _445
REMARK  166  A    between atoms: _445  and  _446
REMARK  167  A    between atoms: _451  and  _452
REMARK  168  A    between atoms: _454  and  _456
REMARK  169  A    between atoms: _456  and  _457
REMARK  170  A    between atoms: _456  and  _459
REMARK  171  A    between atoms: _459  and  _460
REMARK  172  A    between atoms: _460  and  _461
REMARK  173  A    between atoms: _461  and  _462
REMARK  174  A    between atoms: _471  and  _473
REMARK  175  A    between atoms: _473  and  _474
REMARK  176  A    between atoms: _473  and  _476
REMARK  177  A    between atoms: _476  and  _477
REMARK  178  A    between atoms: _477  and  _478
REMARK  179  A    between atoms: _478  and  _479
REMARK  180  A    between atoms: _488  and  _490
REMARK  181  A    between atoms: _490  and  _491
REMARK  182  A    between atoms: _493  and  _495
REMARK  183  A    between atoms: _495  and  _496
REMARK  184  A    between atoms: _499  and  _501
REMARK  185  A    between atoms: _501  and  _502
REMARK  186  A    between atoms: _501  and  _504
REMARK  187  A    between atoms: _504  and  _505
REMARK  188  A    between atoms: _511  and  _512
REMARK  189  A    between atoms: _517  and  _519
REMARK  190  A    between atoms: _519  and  _520
REMARK  191  A    between atoms: _522  and  _524
REMARK  192  A    between atoms: _524  and  _525
REMARK  193  A    between atoms: _524  and  _527
REMARK  194  A    between atoms: _527  and  _528
REMARK  195  A    between atoms: _534  and  _536
REMARK  196  A    between atoms: _536  and  _537
REMARK  197  A    between atoms: _536  and  _539
REMARK  198  A    between atoms: _539  and  _540
REMARK  199  A    between atoms: _545  and  _547
REMARK  200  A    between atoms: _547  and  _548
REMARK  201  A    between atoms: _547  and  _550
REMARK  202  A    between atoms: _550  and  _551
REMARK  203  A    between atoms: _551  and  _552
REMARK  204  A    between atoms: _552  and  _553
REMARK  205  A    between atoms: _553  and  ZN_801
REMARK  206  A    between atoms: _555  and  _557
REMARK  207  A    between atoms: _557  and  _558
REMARK  208  A    between atoms: _561  and  _563
REMARK  209  A    between atoms: _563  and  _564
REMARK  210  A    between atoms: _566  and  _568
REMARK  211  A    between atoms: _568  and  _569
REMARK  212  A    between atoms: _568  and  _571
REMARK  213  A    between atoms: _571  and  _572
REMARK  214  A    between atoms: _575  and  _577
REMARK  215  A    between atoms: _577  and  _578
REMARK  216  A    between atoms: _581  and  _583
REMARK  217  A    between atoms: _583  and  _584
REMARK  218  A    between atoms: _583  and  _586
REMARK  219  A    between atoms: _586  and  _587
REMARK  220  A    between atoms: _587  and  _588
REMARK  221  A    between atoms: _591  and  _593
REMARK  222  A    between atoms: _593  and  _594
REMARK  223  A    between atoms: _593  and  _596
REMARK  224  A    between atoms: _596  and  _597
REMARK  225  A    between atoms: _597  and  _598
REMARK  226  A    between atoms: _598  and  _599
REMARK  227  A    between atoms: _599  and  _600
REMARK  228  A    between atoms: _604  and  _606
REMARK  229  A    between atoms: _606  and  _607
REMARK  230  A    between atoms: _606  and  _609
REMARK  231  A    between atoms: _609  and  _610
REMARK  232  A    between atoms: _616  and  _618
REMARK  233  A    between atoms: _618  and  _619
REMARK  234  A    between atoms: _618  and  _621
REMARK  235  A    between atoms: _621  and  _622
REMARK  236  A    between atoms: _628  and  _630
REMARK  237  A    between atoms: _630  and  _631
REMARK  238  A    between atoms: _633  and  _635
REMARK  239  A    between atoms: _635  and  _636
REMARK  240  A    between atoms: _635  and  _638
REMARK  241  A    between atoms: _641  and  _643
REMARK  242  A    between atoms: _643  and  _644
REMARK  243  A    between atoms: _643  and  _646
REMARK  244  A    between atoms: _646  and  _647
REMARK  245  A    between atoms: _647  and  _648
REMARK  246  A    between atoms: _648  and  _649
REMARK  247  A    between atoms: _649  and  _650
REMARK  248  A    between atoms: _654  and  _656
REMARK  249  A    between atoms: _656  and  _657
REMARK  250  A    between atoms: _656  and  _659
REMARK  251  A    between atoms: _659  and  _660
REMARK  252  A    between atoms: _666  and  _668
REMARK  253  A    between atoms: _668  and  _669
REMARK  254  A    between atoms: _668  and  _671
REMARK  255  A    between atoms: _671  and  _672
REMARK  256  A    between atoms: _677  and  _679
REMARK  257  A    between atoms: _679  and  _680
REMARK  258  A    between atoms: _679  and  _682
REMARK  259  A    between atoms: _682  and  _683
REMARK  260  A    between atoms: _688  and  _690
REMARK  261  A    between atoms: _690  and  _691
REMARK  262  A    between atoms: _690  and  _693
REMARK  263  A    between atoms: _696  and  _698
REMARK  264  A    between atoms: _698  and  _699
REMARK  265  A    between atoms: _698  and  _701
REMARK  266  A    between atoms: _701  and  _702
REMARK  267  A    between atoms: _706  and  _707
REMARK  268  A    between atoms: _712  and  _714
REMARK  269  A    between atoms: _714  and  _715
REMARK  270  A    between atoms: _714  and  _717
REMARK  271  A    between atoms: _717  and  _718
REMARK  272  A    between atoms: _723  and  _724
REMARK  273  A    between atoms: _726  and  _728
REMARK  274  A    between atoms: _728  and  _729
REMARK  275  A    between atoms: _728  and  _731
REMARK  276  A    between atoms: _731  and  _732
REMARK  277  A    between atoms: _732  and  _733
REMARK  278  A    between atoms: _733  and  _734
REMARK  279  A    between atoms: _743  and  _745
REMARK  280  A    between atoms: _745  and  _746
REMARK  281  A    between atoms: _745  and  _748
REMARK  282  A    between atoms: _748  and  _749
REMARK  283  A    between atoms: _754  and  _755
REMARK  284  A    between atoms: _757  and  _759
REMARK  285  A    between atoms: _759  and  _760
REMARK  286  A    between atoms: _759  and  _762
REMARK  287  A    between atoms: _762  and  _763
REMARK  288  A    between atoms: _769  and  _771
REMARK  289  A    between atoms: _771  and  _772
REMARK  290  A    between atoms: _771  and  _774
REMARK  291  A    between atoms: _774  and  _775
REMARK  292  A    between atoms: _777  and  _779
REMARK  293  A    between atoms: _779  and  _780
REMARK  294  A    between atoms: _779  and  _782
REMARK  295  A    between atoms: _782  and  _783
REMARK  296  A    between atoms: _789  and  _791
REMARK  297  A    between atoms: _791  and  _792
REMARK  298  A    between atoms: _791  and  _794
REMARK  299  A    between atoms: _794  and  _795
REMARK  300  A    between atoms: _795  and  _796
REMARK                            x       y       z     vdW  Elec       q    Type
REMARK                         _______ _______ _______ _____ _____    ______ ____
ROOT
ATOM      1  O   HOH     1      -6.437 -12.558 -27.737  0.00  0.00    +0.000 OA
ENDROOT
TORSDOF 0
REMARK  Name = ../refined-set-2016/2xyd/2xyd_pocket.pdb
REMARK  300 active torsions:
REMARK  status: ('A' for Active; 'I' for Inactive)
REMARK    1  A    between atoms: _1  and  _3
REMARK    2  A    between atoms: _3  and  _4
REMARK    3  A    between atoms: _3  and  _6
REMARK    4  A    between atoms: _6  and  _7
REMARK    5  A    between atoms: _10  and  _12
REMARK    6  A    between atoms: _12  and  _13
REMARK    7  A    between atoms: _12  and  _15
REMARK    8  A    between atoms: _15  and  _16
REMARK    9  A    between atoms: _21  and  _22
REMARK   10  A    between atoms: _24  and  _26
REMARK   11  A    between atoms: _26  and  _27
REMARK   12  A    between atoms: _26  and  _29
REMARK   13  A    between atoms: _29  and  _30
REMARK   14  A    between atoms: _35  and  _36
REMARK   15  A    between atoms: _38  and  _40
REMARK   16  A    between atoms: _40  and  _41
REMARK   17  A    between atoms: _40  and  _43
REMARK   18  A    between atoms: _43  and  _44
REMARK   19  A    between atoms: _47  and  _49
REMARK   20  A    between atoms: _49  and  _50
REMARK   21  A    between atoms: _49  and  _52
REMARK   22  A    between atoms: _52  and  _53
REMARK   23  A    between atoms: _63  and  _65
REMARK   24  A    between atoms: _65  and  _66
REMARK   25  A    between atoms: _65  and  _68
REMARK   26  A    between atoms: _68  and  _69
REMARK   27  A    between atoms: _69  and  _70
REMARK   28  A    between atoms: _75  and  _77
REMARK   29  A    between atoms: _77  and  _78
REMARK   30  A    between atoms: _77  and  _80
REMARK   31  A    between atoms: _80  and  _81
REMARK   32  A    between atoms: _83  and  _85
REMARK   33  A    between atoms: _85  and  _86
REMARK   34  A    between atoms: _85  and  _88
REMARK   35  A    between atoms: _88  and  _89
REMARK   36  A    between atoms: _99  and  _101
REMARK   37  A    between atoms: _101  and  _102
REMARK   38  A    between atoms: _101  and  _104
REMARK   39  A    between atoms: _104  and  _105
REMARK   40  A    between atoms: _105  and  _106
REMARK   41  A    between atoms: _109  and  _111
REMARK   42  A    between atoms: _111  and  _112
REMARK   43  A    between atoms: _111  and  _114
REMARK   44  A    between atoms: _114  and  _115
REMARK   45  A    between atoms: _120  and  _122
REMARK   46  A    between atoms: _122  and  _123
REMARK   47  A    between atoms: _122  and  _125
REMARK   48  A    between atoms: _128  and  _130
REMARK   49  A    between atoms: _130  and  _131
REMARK   50  A    between atoms: _130  and  _133
REMARK   51  A    between atoms: _135  and  _137
REMARK   52  A    between atoms: _137  and  _138
REMARK   53  A    between atoms: _137  and  _140
REMARK   54  A    between atoms: _140  and  _141
REMARK   55  A    between atoms: _146  and  _148
REMARK   56  A    between atoms: _148  and  _149
REMARK   57  A    between atoms: _152  and  _154
REMARK   58  A    between atoms: _154  and  _155
REMARK   59  A    between atoms: _154  and  _157
REMARK   60  A    between atoms: _157  and  _158
REMARK   61  A    between atoms: _160  and  _162
REMARK   62  A    between atoms: _162  and  _163
REMARK   63  A    between atoms: _166  and  _168
REMARK   64  A    between atoms: _168  and  _169
REMARK   65  A    between atoms: _168  and  _171
REMARK   66  A    between atoms: _171  and  _172
REMARK   67  A    between atoms: _182  and  _184
REMARK   68  A    between atoms: _184  and  _185
REMARK   69  A    between atoms: _184  and  _187
REMARK   70  A    between atoms: _187  and  _188
REMARK   71  A    between atoms: _191  and  _193
REMARK   72  A    between atoms: _193  and  _194
REMARK   73  A    between atoms: _193  and  _196
REMARK   74  A    between atoms: _196  and  _197
REMARK   75  A    between atoms: _202  and  _203
REMARK   76  A    between atoms: _205  and  _207
REMARK   77  A    between atoms: _207  and  _208
REMARK   78  A    between atoms: _207  and  _210
REMARK   79  A    between atoms: _210  and  _211
REMARK   80  A    between atoms: _211  and  _212
REMARK   81  A    between atoms: _212  and  _213
REMARK   82  A    between atoms: _222  and  _224
REMARK   83  A    between atoms: _224  and  _225
REMARK   84  A    between atoms: _224  and  _227
REMARK   85  A    between atoms: _227  and  _228
REMARK   86  A    between atoms: _231  and  _233
REMARK   87  A    between atoms: _233  and  _234
REMARK   88  A    between atoms: _233  and  _236
REMARK   89  A    between atoms: _236  and  _237
REMARK   90  A    between atoms: _237  and  _238
REMARK   91  A    between atoms: _238  and  _239
REMARK   92  A    between atoms: _239  and  _240
REMARK   93  A    between atoms: _244  and  _246
REMARK   94  A    between atoms: _246  and  _247
REMARK   95  A    between atoms: _246  and  _249
REMARK   96  A    between atoms: _249  and  _250
REMARK   97  A    between atoms: _250  and  _251
REMARK   98  A    between atoms: _256  and  _258
REMARK   99  A    between atoms: _258  and  _259
REMARK  100  A    between atoms: _258  and  _261
REMARK  101  A    between atoms: _261  and  _262
REMARK  102  A    between atoms: _262  and  _263
REMARK  103  A    between atoms: _263  and  _264
REMARK  104  A    between atoms: _273  and  _275
REMARK  105  A    between atoms: _275  and  _276
REMARK  106  A    between atoms: _275  and  _278
REMARK  107  A    between atoms: _278  and  _279
REMARK  108  A    between atoms: _282  and  _284
REMARK  109  A    between atoms: _284  and  _285
REMARK  110  A    between atoms: _284  and  _287
REMARK  111  A    between atoms: _287  and  _288
REMARK  112  A    between atoms: _288  and  _289
REMARK  113  A    between atoms: _291  and  _293
REMARK  114  A    between atoms: _293  and  _294
REMARK  115  A    between atoms: _293  and  _296
REMARK  116  A    between atoms: _296  and  _297
REMARK  117  A    between atoms: _300  and  _302
REMARK  118  A    between atoms: _302  and  _303
REMARK  119  A    between atoms: _302  and  _305
REMARK  120  A    between atoms: _305  and  _306
REMARK  121  A    between atoms: _306  and  _307
REMARK  122  A    between atoms: _312  and  _314
REMARK  123  A    between atoms: _314  and  _315
REMARK  124  A    between atoms: _314  and  _317
REMARK  125  A    between atoms: _317  and  _318
REMARK  126  A    between atoms: _321  and  _323
REMARK  127  A    between atoms: _323  and  _324
REMARK  128  A    between atoms: _323  and  _326
REMARK  129  A    between atoms: _326  and  _327
REMARK  130  A    between atoms: _329  and  _331
REMARK  131  A    between atoms: _331  and  _332
REMARK  132  A    between atoms: _331  and  _334
REMARK  133  A    between atoms: _334  and  _335
REMARK  134  A    between atoms: _338  and  _340
REMARK  135  A    between atoms: _340  and  _341
REMARK  136  A    between atoms: _340  and  _343
REMARK  137  A    between atoms: _346  and  _348
REMARK  138  A    between atoms: _348  and  _349
REMARK  139  A    between atoms: _348  and  _351
REMARK  140  A    between atoms: _351  and  _352
REMARK  141  A    between atoms: _357  and  _359
REMARK  142  A    between atoms: _370  and  _373
REMARK  143  A    between atoms: _373  and  _374
REMARK  144  A    between atoms: _374  and  _375
REMARK  145  A    between atoms: _380  and  _383
REMARK  146  A    between atoms: _383  and  _384
REMARK  147  A    between atoms: _384  and  _385
REMARK  148  A    between atoms: _394  and  _395
REMARK  149  A    between atoms: _403  and  _405
REMARK  150  A    between atoms: _405  and  _406
REMARK  151  A    between atoms: _405  and  _408
REMARK  152  A    between atoms: _408  and  _409
REMARK  153  A    between atoms: _412  and  _414
REMARK  154  A    between atoms: _414  and  _415
REMARK  155  A    between atoms: _414  and  _417
REMARK  156  A    between atoms: _417  and  _418
REMARK  157  A    between atoms: _423  and  _424
REMARK  158  A    between atoms: _426  and  _428
REMARK  159  A    between atoms: _428  and  _429
REMARK  160  A    between atoms: _428  and  _431
REMARK  161  A    between atoms: _431  and  _432
REMARK  162  A    between atoms: _437  and  _438
REMARK  163  A    between atoms: _440  and  _442
REMARK  164  A    between atoms: _442  and  _443
REMARK  165  A    between atoms: _442  and  _445
REMARK  166  A    between atoms: _445  and  _446
REMARK  167  A    between atoms: _451  and  _452
REMARK  168  A    between atoms: _454  and  _456
REMARK  169  A    between atoms: _456  and  _457
REMARK  170  A    between atoms: _456  and  _459
REMARK  171  A    between atoms: _459  and  _460
REMARK  172  A    between atoms: _460  and  _461
REMARK  173  A    between atoms: _461  and  _462
REMARK  174  A    between atoms: _471  and  _473
REMARK  175  A    between atoms: _473  and  _474
REMARK  176  A    between atoms: _473  and  _476
REMARK  177  A    between atoms: _476  and  _477
REMARK  178  A    between atoms: _477  and  _478
REMARK  179  A    between atoms: _478  and  _479
REMARK  180  A    between atoms: _488  and  _490
REMARK  181  A    between atoms: _490  and  _491
REMARK  182  A    between atoms: _493  and  _495
REMARK  183  A    between atoms: _495  and  _496
REMARK  184  A    between atoms: _499  and  _501
REMARK  185  A    between atoms: _501  and  _502
REMARK  186  A    between atoms: _501  and  _504
REMARK  187  A    between atoms: _504  and  _505
REMARK  188  A    between atoms: _511  and  _512
REMARK  189  A    between atoms: _517  and  _519
REMARK  190  A    between atoms: _519  and  _520
REMARK  191  A    between atoms: _522  and  _524
REMARK  192  A    between atoms: _524  and  _525
REMARK  193  A    between atoms: _524  and  _527
REMARK  194  A    between atoms: _527  and  _528
REMARK  195  A    between atoms: _534  and  _536
REMARK  196  A    between atoms: _536  and  _537
REMARK  197  A    between atoms: _536  and  _539
REMARK  198  A    between atoms: _539  and  _540
REMARK  199  A    between atoms: _545  and  _547
REMARK  200  A    between atoms: _547  and  _548
REMARK  201  A    between atoms: _547  and  _550
REMARK  202  A    between atoms: _550  and  _551
REMARK  203  A    between atoms: _551  and  _552
REMARK  204  A    between atoms: _552  and  _553
REMARK  205  A    between atoms: _553  and  ZN_801
REMARK  206  A    between atoms: _555  and  _557
REMARK  207  A    between atoms: _557  and  _558
REMARK  208  A    between atoms: _561  and  _563
REMARK  209  A    between atoms: _563  and  _564
REMARK  210  A    between atoms: _566  and  _568
REMARK  211  A    between atoms: _568  and  _569
REMARK  212  A    between atoms: _568  and  _571
REMARK  213  A    between atoms: _571  and  _572
REMARK  214  A    between atoms: _575  and  _577
REMARK  215  A    between atoms: _577  and  _578
REMARK  216  A    between atoms: _581  and  _583
REMARK  217  A    between atoms: _583  and  _584
REMARK  218  A    between atoms: _583  and  _586
REMARK  219  A    between atoms: _586  and  _587
REMARK  220  A    between atoms: _587  and  _588
REMARK  221  A    between atoms: _591  and  _593
REMARK  222  A    between atoms: _593  and  _594
REMARK  223  A    between atoms: _593  and  _596
REMARK  224  A    between atoms: _596  and  _597
REMARK  225  A    between atoms: _597  and  _598
REMARK  226  A    between atoms: _598  and  _599
REMARK  227  A    between atoms: _599  and  _600
REMARK  228  A    between atoms: _604  and  _606
REMARK  229  A    between atoms: _606  and  _607
REMARK  230  A    between atoms: _606  and  _609
REMARK  231  A    between atoms: _609  and  _610
REMARK  232  A    between atoms: _616  and  _618
REMARK  233  A    between atoms: _618  and  _619
REMARK  234  A    between atoms: _618  and  _621
REMARK  235  A    between atoms: _621  and  _622
REMARK  236  A    between atoms: _628  and  _630
REMARK  237  A    between atoms: _630  and  _631
REMARK  238  A    between atoms: _633  and  _635
REMARK  239  A    between atoms: _635  and  _636
REMARK  240  A    between atoms: _635  and  _638
REMARK  241  A    between atoms: _641  and  _643
REMARK  242  A    between atoms: _643  and  _644
REMARK  243  A    between atoms: _643  and  _646
REMARK  244  A    between atoms: _646  and  _647
REMARK  245  A    between atoms: _647  and  _648
REMARK  246  A    between atoms: _648  and  _649
REMARK  247  A    between atoms: _649  and  _650
REMARK  248  A    between atoms: _654  and  _656
REMARK  249  A    between atoms: _656  and  _657
REMARK  250  A    between atoms: _656  and  _659
REMARK  251  A    between atoms: _659  and  _660
REMARK  252  A    between atoms: _666  and  _668
REMARK  253  A    between atoms: _668  and  _669
REMARK  254  A    between atoms: _668  and  _671
REMARK  255  A    between atoms: _671  and  _672
REMARK  256  A    between atoms: _677  and  _679
REMARK  257  A    between atoms: _679  and  _680
REMARK  258  A    between atoms: _679  and  _682
REMARK  259  A    between atoms: _682  and  _683
REMARK  260  A    between atoms: _688  and  _690
REMARK  261  A    between atoms: _690  and  _691
REMARK  262  A    between atoms: _690  and  _693
REMARK  263  A    between atoms: _696  and  _698
REMARK  264  A    between atoms: _698  and  _699
REMARK  265  A    between atoms: _698  and  _701
REMARK  266  A    between atoms: _701  and  _702
REMARK  267  A    between atoms: _706  and  _707
REMARK  268  A    between atoms: _712  and  _714
REMARK  269  A    between atoms: _714  and  _715
REMARK  270  A    between atoms: _714  and  _717
REMARK  271  A    between atoms: _717  and  _718
REMARK  272  A    between atoms: _723  and  _724
REMARK  273  A    between atoms: _726  and  _728
REMARK  274  A    between atoms: _728  and  _729
REMARK  275  A    between atoms: _728  and  _731
REMARK  276  A    between atoms: _731  and  _732
REMARK  277  A    between atoms: _732  and  _733
REMARK  278  A    between atoms: _733  and  _734
REMARK  279  A    between atoms: _743  and  _745
REMARK  280  A    between atoms: _745  and  _746
REMARK  281  A    between atoms: _745  and  _748
REMARK  282  A    between atoms: _748  and  _749
REMARK  283  A    between atoms: _754  and  _755
REMARK  284  A    between atoms: _757  and  _759
REMARK  285  A    between atoms: _759  and  _760
REMARK  286  A    between atoms: _759  and  _762
REMARK  287  A    between atoms: _762  and  _763
REMARK  288  A    between atoms: _769  and  _771
REMARK  289  A    between atoms: _771  and  _772
REMARK  290  A    between atoms: _771  and  _774
REMARK  291  A    between atoms: _774  and  _775
REMARK  292  A    between atoms: _777  and  _779
REMARK  293  A    between atoms: _779  and  _780
REMARK  294  A    between atoms: _779  and  _782
REMARK  295  A    between atoms: _782  and  _783
REMARK  296  A    between atoms: _789  and  _791
REMARK  297  A    between atoms: _791  and  _792
REMARK  298  A    between atoms: _791  and  _794
REMARK  299  A    between atoms: _794  and  _795
REMARK  300  A    between atoms: _795  and  _796
REMARK                            x       y       z     vdW  Elec       q    Type
REMARK                         _______ _______ _______ _____ _____    ______ ____
ROOT
ATOM      1  O   HOH     1      -9.447  -9.957 -28.779  0.00  0.00    +0.000 OA
ENDROOT
TORSDOF 0
REMARK  Name = ../refined-set-2016/2xyd/2xyd_pocket.pdb
REMARK  300 active torsions:
REMARK  status: ('A' for Active; 'I' for Inactive)
REMARK    1  A    between atoms: _1  and  _3
REMARK    2  A    between atoms: _3  and  _4
REMARK    3  A    between atoms: _3  and  _6
REMARK    4  A    between atoms: _6  and  _7
REMARK    5  A    between atoms: _10  and  _12
REMARK    6  A    between atoms: _12  and  _13
REMARK    7  A    between atoms: _12  and  _15
REMARK    8  A    between atoms: _15  and  _16
REMARK    9  A    between atoms: _21  and  _22
REMARK   10  A    between atoms: _24  and  _26
REMARK   11  A    between atoms: _26  and  _27
REMARK   12  A    between atoms: _26  and  _29
REMARK   13  A    between atoms: _29  and  _30
REMARK   14  A    between atoms: _35  and  _36
REMARK   15  A    between atoms: _38  and  _40
REMARK   16  A    between atoms: _40  and  _41
REMARK   17  A    between atoms: _40  and  _43
REMARK   18  A    between atoms: _43  and  _44
REMARK   19  A    between atoms: _47  and  _49
REMARK   20  A    between atoms: _49  and  _50
REMARK   21  A    between atoms: _49  and  _52
REMARK   22  A    between atoms: _52  and  _53
REMARK   23  A    between atoms: _63  and  _65
REMARK   24  A    between atoms: _65  and  _66
REMARK   25  A    between atoms: _65  and  _68
REMARK   26  A    between atoms: _68  and  _69
REMARK   27  A    between atoms: _69  and  _70
REMARK   28  A    between atoms: _75  and  _77
REMARK   29  A    between atoms: _77  and  _78
REMARK   30  A    between atoms: _77  and  _80
REMARK   31  A    between atoms: _80  and  _81
REMARK   32  A    between atoms: _83  and  _85
REMARK   33  A    between atoms: _85  and  _86
REMARK   34  A    between atoms: _85  and  _88
REMARK   35  A    between atoms: _88  and  _89
REMARK   36  A    between atoms: _99  and  _101
REMARK   37  A    between atoms: _101  and  _102
REMARK   38  A    between atoms: _101  and  _104
REMARK   39  A    between atoms: _104  and  _105
REMARK   40  A    between atoms: _105  and  _106
REMARK   41  A    between atoms: _109  and  _111
REMARK   42  A    between atoms: _111  and  _112
REMARK   43  A    between atoms: _111  and  _114
REMARK   44  A    between atoms: _114  and  _115
REMARK   45  A    between atoms: _120  and  _122
REMARK   46  A    between atoms: _122  and  _123
REMARK   47  A    between atoms: _122  and  _125
REMARK   48  A    between atoms: _128  and  _130
REMARK   49  A    between atoms: _130  and  _131
REMARK   50  A    between atoms: _130  and  _133
REMARK   51  A    between atoms: _135  and  _137
REMARK   52  A    between atoms: _137  and  _138
REMARK   53  A    between atoms: _137  and  _140
REMARK   54  A    between atoms: _140  and  _141
REMARK   55  A    between atoms: _146  and  _148
REMARK   56  A    between atoms: _148  and  _149
REMARK   57  A    between atoms: _152  and  _154
REMARK   58  A    between atoms: _154  and  _155
REMARK   59  A    between atoms: _154  and  _157
REMARK   60  A    between atoms: _157  and  _158
REMARK   61  A    between atoms: _160  and  _162
REMARK   62  A    between atoms: _162  and  _163
REMARK   63  A    between atoms: _166  and  _168
REMARK   64  A    between atoms: _168  and  _169
REMARK   65  A    between atoms: _168  and  _171
REMARK   66  A    between atoms: _171  and  _172
REMARK   67  A    between atoms: _182  and  _184
REMARK   68  A    between atoms: _184  and  _185
REMARK   69  A    between atoms: _184  and  _187
REMARK   70  A    between atoms: _187  and  _188
REMARK   71  A    between atoms: _191  and  _193
REMARK   72  A    between atoms: _193  and  _194
REMARK   73  A    between atoms: _193  and  _196
REMARK   74  A    between atoms: _196  and  _197
REMARK   75  A    between atoms: _202  and  _203
REMARK   76  A    between atoms: _205  and  _207
REMARK   77  A    between atoms: _207  and  _208
REMARK   78  A    between atoms: _207  and  _210
REMARK   79  A    between atoms: _210  and  _211
REMARK   80  A    between atoms: _211  and  _212
REMARK   81  A    between atoms: _212  and  _213
REMARK   82  A    between atoms: _222  and  _224
REMARK   83  A    between atoms: _224  and  _225
REMARK   84  A    between atoms: _224  and  _227
REMARK   85  A    between atoms: _227  and  _228
REMARK   86  A    between atoms: _231  and  _233
REMARK   87  A    between atoms: _233  and  _234
REMARK   88  A    between atoms: _233  and  _236
REMARK   89  A    between atoms: _236  and  _237
REMARK   90  A    between atoms: _237  and  _238
REMARK   91  A    between atoms: _238  and  _239
REMARK   92  A    between atoms: _239  and  _240
REMARK   93  A    between atoms: _244  and  _246
REMARK   94  A    between atoms: _246  and  _247
REMARK   95  A    between atoms: _246  and  _249
REMARK   96  A    between atoms: _249  and  _250
REMARK   97  A    between atoms: _250  and  _251
REMARK   98  A    between atoms: _256  and  _258
REMARK   99  A    between atoms: _258  and  _259
REMARK  100  A    between atoms: _258  and  _261
REMARK  101  A    between atoms: _261  and  _262
REMARK  102  A    between atoms: _262  and  _263
REMARK  103  A    between atoms: _263  and  _264
REMARK  104  A    between atoms: _273  and  _275
REMARK  105  A    between atoms: _275  and  _276
REMARK  106  A    between atoms: _275  and  _278
REMARK  107  A    between atoms: _278  and  _279
REMARK  108  A    between atoms: _282  and  _284
REMARK  109  A    between atoms: _284  and  _285
REMARK  110  A    between atoms: _284  and  _287
REMARK  111  A    between atoms: _287  and  _288
REMARK  112  A    between atoms: _288  and  _289
REMARK  113  A    between atoms: _291  and  _293
REMARK  114  A    between atoms: _293  and  _294
REMARK  115  A    between atoms: _293  and  _296
REMARK  116  A    between atoms: _296  and  _297
REMARK  117  A    between atoms: _300  and  _302
REMARK  118  A    between atoms: _302  and  _303
REMARK  119  A    between atoms: _302  and  _305
REMARK  120  A    between atoms: _305  and  _306
REMARK  121  A    between atoms: _306  and  _307
REMARK  122  A    between atoms: _312  and  _314
REMARK  123  A    between atoms: _314  and  _315
REMARK  124  A    between atoms: _314  and  _317
REMARK  125  A    between atoms: _317  and  _318
REMARK  126  A    between atoms: _321  and  _323
REMARK  127  A    between atoms: _323  and  _324
REMARK  128  A    between atoms: _323  and  _326
REMARK  129  A    between atoms: _326  and  _327
REMARK  130  A    between atoms: _329  and  _331
REMARK  131  A    between atoms: _331  and  _332
REMARK  132  A    between atoms: _331  and  _334
REMARK  133  A    between atoms: _334  and  _335
REMARK  134  A    between atoms: _338  and  _340
REMARK  135  A    between atoms: _340  and  _341
REMARK  136  A    between atoms: _340  and  _343
REMARK  137  A    between atoms: _346  and  _348
REMARK  138  A    between atoms: _348  and  _349
REMARK  139  A    between atoms: _348  and  _351
REMARK  140  A    between atoms: _351  and  _352
REMARK  141  A    between atoms: _357  and  _359
REMARK  142  A    between atoms: _370  and  _373
REMARK  143  A    between atoms: _373  and  _374
REMARK  144  A    between atoms: _374  and  _375
REMARK  145  A    between atoms: _380  and  _383
REMARK  146  A    between atoms: _383  and  _384
REMARK  147  A    between atoms: _384  and  _385
REMARK  148  A    between atoms: _394  and  _395
REMARK  149  A    between atoms: _403  and  _405
REMARK  150  A    between atoms: _405  and  _406
REMARK  151  A    between atoms: _405  and  _408
REMARK  152  A    between atoms: _408  and  _409
REMARK  153  A    between atoms: _412  and  _414
REMARK  154  A    between atoms: _414  and  _415
REMARK  155  A    between atoms: _414  and  _417
REMARK  156  A    between atoms: _417  and  _418
REMARK  157  A    between atoms: _423  and  _424
REMARK  158  A    between atoms: _426  and  _428
REMARK  159  A    between atoms: _428  and  _429
REMARK  160  A    between atoms: _428  and  _431
REMARK  161  A    between atoms: _431  and  _432
REMARK  162  A    between atoms: _437  and  _438
REMARK  163  A    between atoms: _440  and  _442
REMARK  164  A    between atoms: _442  and  _443
REMARK  165  A    between atoms: _442  and  _445
REMARK  166  A    between atoms: _445  and  _446
REMARK  167  A    between atoms: _451  and  _452
REMARK  168  A    between atoms: _454  and  _456
REMARK  169  A    between atoms: _456  and  _457
REMARK  170  A    between atoms: _456  and  _459
REMARK  171  A    between atoms: _459  and  _460
REMARK  172  A    between atoms: _460  and  _461
REMARK  173  A    between atoms: _461  and  _462
REMARK  174  A    between atoms: _471  and  _473
REMARK  175  A    between atoms: _473  and  _474
REMARK  176  A    between atoms: _473  and  _476
REMARK  177  A    between atoms: _476  and  _477
REMARK  178  A    between atoms: _477  and  _478
REMARK  179  A    between atoms: _478  and  _479
REMARK  180  A    between atoms: _488  and  _490
REMARK  181  A    between atoms: _490  and  _491
REMARK  182  A    between atoms: _493  and  _495
REMARK  183  A    between atoms: _495  and  _496
REMARK  184  A    between atoms: _499  and  _501
REMARK  185  A    between atoms: _501  and  _502
REMARK  186  A    between atoms: _501  and  _504
REMARK  187  A    between atoms: _504  and  _505
REMARK  188  A    between atoms: _511  and  _512
REMARK  189  A    between atoms: _517  and  _519
REMARK  190  A    between atoms: _519  and  _520
REMARK  191  A    between atoms: _522  and  _524
REMARK  192  A    between atoms: _524  and  _525
REMARK  193  A    between atoms: _524  and  _527
REMARK  194  A    between atoms: _527  and  _528
REMARK  195  A    between atoms: _534  and  _536
REMARK  196  A    between atoms: _536  and  _537
REMARK  197  A    between atoms: _536  and  _539
REMARK  198  A    between atoms: _539  and  _540
REMARK  199  A    between atoms: _545  and  _547
REMARK  200  A    between atoms: _547  and  _548
REMARK  201  A    between atoms: _547  and  _550
REMARK  202  A    between atoms: _550  and  _551
REMARK  203  A    between atoms: _551  and  _552
REMARK  204  A    between atoms: _552  and  _553
REMARK  205  A    between atoms: _553  and  ZN_801
REMARK  206  A    between atoms: _555  and  _557
REMARK  207  A    between atoms: _557  and  _558
REMARK  208  A    between atoms: _561  and  _563
REMARK  209  A    between atoms: _563  and  _564
REMARK  210  A    between atoms: _566  and  _568
REMARK  211  A    between atoms: _568  and  _569
REMARK  212  A    between atoms: _568  and  _571
REMARK  213  A    between atoms: _571  and  _572
REMARK  214  A    between atoms: _575  and  _577
REMARK  215  A    between atoms: _577  and  _578
REMARK  216  A    between atoms: _581  and  _583
REMARK  217  A    between atoms: _583  and  _584
REMARK  218  A    between atoms: _583  and  _586
REMARK  219  A    between atoms: _586  and  _587
REMARK  220  A    between atoms: _587  and  _588
REMARK  221  A    between atoms: _591  and  _593
REMARK  222  A    between atoms: _593  and  _594
REMARK  223  A    between atoms: _593  and  _596
REMARK  224  A    between atoms: _596  and  _597
REMARK  225  A    between atoms: _597  and  _598
REMARK  226  A    between atoms: _598  and  _599
REMARK  227  A    between atoms: _599  and  _600
REMARK  228  A    between atoms: _604  and  _606
REMARK  229  A    between atoms: _606  and  _607
REMARK  230  A    between atoms: _606  and  _609
REMARK  231  A    between atoms: _609  and  _610
REMARK  232  A    between atoms: _616  and  _618
REMARK  233  A    between atoms: _618  and  _619
REMARK  234  A    between atoms: _618  and  _621
REMARK  235  A    between atoms: _621  and  _622
REMARK  236  A    between atoms: _628  and  _630
REMARK  237  A    between atoms: _630  and  _631
REMARK  238  A    between atoms: _633  and  _635
REMARK  239  A    between atoms: _635  and  _636
REMARK  240  A    between atoms: _635  and  _638
REMARK  241  A    between atoms: _641  and  _643
REMARK  242  A    between atoms: _643  and  _644
REMARK  243  A    between atoms: _643  and  _646
REMARK  244  A    between atoms: _646  and  _647
REMARK  245  A    between atoms: _647  and  _648
REMARK  246  A    between atoms: _648  and  _649
REMARK  247  A    between atoms: _649  and  _650
REMARK  248  A    between atoms: _654  and  _656
REMARK  249  A    between atoms: _656  and  _657
REMARK  250  A    between atoms: _656  and  _659
REMARK  251  A    between atoms: _659  and  _660
REMARK  252  A    between atoms: _666  and  _668
REMARK  253  A    between atoms: _668  and  _669
REMARK  254  A    between atoms: _668  and  _671
REMARK  255  A    between atoms: _671  and  _672
REMARK  256  A    between atoms: _677  and  _679
REMARK  257  A    between atoms: _679  and  _680
REMARK  258  A    between atoms: _679  and  _682
REMARK  259  A    between atoms: _682  and  _683
REMARK  260  A    between atoms: _688  and  _690
REMARK  261  A    between atoms: _690  and  _691
REMARK  262  A    between atoms: _690  and  _693
REMARK  263  A    between atoms: _696  and  _698
REMARK  264  A    between atoms: _698  and  _699
REMARK  265  A    between atoms: _698  and  _701
REMARK  266  A    between atoms: _701  and  _702
REMARK  267  A    between atoms: _706  and  _707
REMARK  268  A    between atoms: _712  and  _714
REMARK  269  A    between atoms: _714  and  _715
REMARK  270  A    between atoms: _714  and  _717
REMARK  271  A    between atoms: _717  and  _718
REMARK  272  A    between atoms: _723  and  _724
REMARK  273  A    between atoms: _726  and  _728
REMARK  274  A    between atoms: _728  and  _729
REMARK  275  A    between atoms: _728  and  _731
REMARK  276  A    between atoms: _731  and  _732
REMARK  277  A    between atoms: _732  and  _733
REMARK  278  A    between atoms: _733  and  _734
REMARK  279  A    between atoms: _743  and  _745
REMARK  280  A    between atoms: _745  and  _746
REMARK  281  A    between atoms: _745  and  _748
REMARK  282  A    between atoms: _748  and  _749
REMARK  283  A    between atoms: _754  and  _755
REMARK  284  A    between atoms: _757  and  _759
REMARK  285  A    between atoms: _759  and  _760
REMARK  286  A    between atoms: _759  and  _762
REMARK  287  A    between atoms: _762  and  _763
REMARK  288  A    between atoms: _769  and  _771
REMARK  289  A    between atoms: _771  and  _772
REMARK  290  A    between atoms: _771  and  _774
REMARK  291  A    between atoms: _774  and  _775
REMARK  292  A    between atoms: _777  and  _779
REMARK  293  A    between atoms: _779  and  _780
REMARK  294  A    between atoms: _779  and  _782
REMARK  295  A    between atoms: _782  and  _783
REMARK  296  A    between atoms: _789  and  _791
REMARK  297  A    between atoms: _791  and  _792
REMARK  298  A    between atoms: _791  and  _794
REMARK  299  A    between atoms: _794  and  _795
REMARK  300  A    between atoms: _795  and  _796
REMARK                            x       y       z     vdW  Elec       q    Type
REMARK                         _______ _______ _______ _____ _____    ______ ____
ROOT
ATOM      1  O   HOH     1       1.918  -7.909 -26.252  0.00  0.00    +0.000 OA
ENDROOT
TORSDOF 0
REMARK  Name = ../refined-set-2016/2xyd/2xyd_pocket.pdb
REMARK  300 active torsions:
REMARK  status: ('A' for Active; 'I' for Inactive)
REMARK    1  A    between atoms: _1  and  _3
REMARK    2  A    between atoms: _3  and  _4
REMARK    3  A    between atoms: _3  and  _6
REMARK    4  A    between atoms: _6  and  _7
REMARK    5  A    between atoms: _10  and  _12
REMARK    6  A    between atoms: _12  and  _13
REMARK    7  A    between atoms: _12  and  _15
REMARK    8  A    between atoms: _15  and  _16
REMARK    9  A    between atoms: _21  and  _22
REMARK   10  A    between atoms: _24  and  _26
REMARK   11  A    between atoms: _26  and  _27
REMARK   12  A    between atoms: _26  and  _29
REMARK   13  A    between atoms: _29  and  _30
REMARK   14  A    between atoms: _35  and  _36
REMARK   15  A    between atoms: _38  and  _40
REMARK   16  A    between atoms: _40  and  _41
REMARK   17  A    between atoms: _40  and  _43
REMARK   18  A    between atoms: _43  and  _44
REMARK   19  A    between atoms: _47  and  _49
REMARK   20  A    between atoms: _49  and  _50
REMARK   21  A    between atoms: _49  and  _52
REMARK   22  A    between atoms: _52  and  _53
REMARK   23  A    between atoms: _63  and  _65
REMARK   24  A    between atoms: _65  and  _66
REMARK   25  A    between atoms: _65  and  _68
REMARK   26  A    between atoms: _68  and  _69
REMARK   27  A    between atoms: _69  and  _70
REMARK   28  A    between atoms: _75  and  _77
REMARK   29  A    between atoms: _77  and  _78
REMARK   30  A    between atoms: _77  and  _80
REMARK   31  A    between atoms: _80  and  _81
REMARK   32  A    between atoms: _83  and  _85
REMARK   33  A    between atoms: _85  and  _86
REMARK   34  A    between atoms: _85  and  _88
REMARK   35  A    between atoms: _88  and  _89
REMARK   36  A    between atoms: _99  and  _101
REMARK   37  A    between atoms: _101  and  _102
REMARK   38  A    between atoms: _101  and  _104
REMARK   39  A    between atoms: _104  and  _105
REMARK   40  A    between atoms: _105  and  _106
REMARK   41  A    between atoms: _109  and  _111
REMARK   42  A    between atoms: _111  and  _112
REMARK   43  A    between atoms: _111  and  _114
REMARK   44  A    between atoms: _114  and  _115
REMARK   45  A    between atoms: _120  and  _122
REMARK   46  A    between atoms: _122  and  _123
REMARK   47  A    between atoms: _122  and  _125
REMARK   48  A    between atoms: _128  and  _130
REMARK   49  A    between atoms: _130  and  _131
REMARK   50  A    between atoms: _130  and  _133
REMARK   51  A    between atoms: _135  and  _137
REMARK   52  A    between atoms: _137  and  _138
REMARK   53  A    between atoms: _137  and  _140
REMARK   54  A    between atoms: _140  and  _141
REMARK   55  A    between atoms: _146  and  _148
REMARK   56  A    between atoms: _148  and  _149
REMARK   57  A    between atoms: _152  and  _154
REMARK   58  A    between atoms: _154  and  _155
REMARK   59  A    between atoms: _154  and  _157
REMARK   60  A    between atoms: _157  and  _158
REMARK   61  A    between atoms: _160  and  _162
REMARK   62  A    between atoms: _162  and  _163
REMARK   63  A    between atoms: _166  and  _168
REMARK   64  A    between atoms: _168  and  _169
REMARK   65  A    between atoms: _168  and  _171
REMARK   66  A    between atoms: _171  and  _172
REMARK   67  A    between atoms: _182  and  _184
REMARK   68  A    between atoms: _184  and  _185
REMARK   69  A    between atoms: _184  and  _187
REMARK   70  A    between atoms: _187  and  _188
REMARK   71  A    between atoms: _191  and  _193
REMARK   72  A    between atoms: _193  and  _194
REMARK   73  A    between atoms: _193  and  _196
REMARK   74  A    between atoms: _196  and  _197
REMARK   75  A    between atoms: _202  and  _203
REMARK   76  A    between atoms: _205  and  _207
REMARK   77  A    between atoms: _207  and  _208
REMARK   78  A    between atoms: _207  and  _210
REMARK   79  A    between atoms: _210  and  _211
REMARK   80  A    between atoms: _211  and  _212
REMARK   81  A    between atoms: _212  and  _213
REMARK   82  A    between atoms: _222  and  _224
REMARK   83  A    between atoms: _224  and  _225
REMARK   84  A    between atoms: _224  and  _227
REMARK   85  A    between atoms: _227  and  _228
REMARK   86  A    between atoms: _231  and  _233
REMARK   87  A    between atoms: _233  and  _234
REMARK   88  A    between atoms: _233  and  _236
REMARK   89  A    between atoms: _236  and  _237
REMARK   90  A    between atoms: _237  and  _238
REMARK   91  A    between atoms: _238  and  _239
REMARK   92  A    between atoms: _239  and  _240
REMARK   93  A    between atoms: _244  and  _246
REMARK   94  A    between atoms: _246  and  _247
REMARK   95  A    between atoms: _246  and  _249
REMARK   96  A    between atoms: _249  and  _250
REMARK   97  A    between atoms: _250  and  _251
REMARK   98  A    between atoms: _256  and  _258
REMARK   99  A    between atoms: _258  and  _259
REMARK  100  A    between atoms: _258  and  _261
REMARK  101  A    between atoms: _261  and  _262
REMARK  102  A    between atoms: _262  and  _263
REMARK  103  A    between atoms: _263  and  _264
REMARK  104  A    between atoms: _273  and  _275
REMARK  105  A    between atoms: _275  and  _276
REMARK  106  A    between atoms: _275  and  _278
REMARK  107  A    between atoms: _278  and  _279
REMARK  108  A    between atoms: _282  and  _284
REMARK  109  A    between atoms: _284  and  _285
REMARK  110  A    between atoms: _284  and  _287
REMARK  111  A    between atoms: _287  and  _288
REMARK  112  A    between atoms: _288  and  _289
REMARK  113  A    between atoms: _291  and  _293
REMARK  114  A    between atoms: _293  and  _294
REMARK  115  A    between atoms: _293  and  _296
REMARK  116  A    between atoms: _296  and  _297
REMARK  117  A    between atoms: _300  and  _302
REMARK  118  A    between atoms: _302  and  _303
REMARK  119  A    between atoms: _302  and  _305
REMARK  120  A    between atoms: _305  and  _306
REMARK  121  A    between atoms: _306  and  _307
REMARK  122  A    between atoms: _312  and  _314
REMARK  123  A    between atoms: _314  and  _315
REMARK  124  A    between atoms: _314  and  _317
REMARK  125  A    between atoms: _317  and  _318
REMARK  126  A    between atoms: _321  and  _323
REMARK  127  A    between atoms: _323  and  _324
REMARK  128  A    between atoms: _323  and  _326
REMARK  129  A    between atoms: _326  and  _327
REMARK  130  A    between atoms: _329  and  _331
REMARK  131  A    between atoms: _331  and  _332
REMARK  132  A    between atoms: _331  and  _334
REMARK  133  A    between atoms: _334  and  _335
REMARK  134  A    between atoms: _338  and  _340
REMARK  135  A    between atoms: _340  and  _341
REMARK  136  A    between atoms: _340  and  _343
REMARK  137  A    between atoms: _346  and  _348
REMARK  138  A    between atoms: _348  and  _349
REMARK  139  A    between atoms: _348  and  _351
REMARK  140  A    between atoms: _351  and  _352
REMARK  141  A    between atoms: _357  and  _359
REMARK  142  A    between atoms: _370  and  _373
REMARK  143  A    between atoms: _373  and  _374
REMARK  144  A    between atoms: _374  and  _375
REMARK  145  A    between atoms: _380  and  _383
REMARK  146  A    between atoms: _383  and  _384
REMARK  147  A    between atoms: _384  and  _385
REMARK  148  A    between atoms: _394  and  _395
REMARK  149  A    between atoms: _403  and  _405
REMARK  150  A    between atoms: _405  and  _406
REMARK  151  A    between atoms: _405  and  _408
REMARK  152  A    between atoms: _408  and  _409
REMARK  153  A    between atoms: _412  and  _414
REMARK  154  A    between atoms: _414  and  _415
REMARK  155  A    between atoms: _414  and  _417
REMARK  156  A    between atoms: _417  and  _418
REMARK  157  A    between atoms: _423  and  _424
REMARK  158  A    between atoms: _426  and  _428
REMARK  159  A    between atoms: _428  and  _429
REMARK  160  A    between atoms: _428  and  _431
REMARK  161  A    between atoms: _431  and  _432
REMARK  162  A    between atoms: _437  and  _438
REMARK  163  A    between atoms: _440  and  _442
REMARK  164  A    between atoms: _442  and  _443
REMARK  165  A    between atoms: _442  and  _445
REMARK  166  A    between atoms: _445  and  _446
REMARK  167  A    between atoms: _451  and  _452
REMARK  168  A    between atoms: _454  and  _456
REMARK  169  A    between atoms: _456  and  _457
REMARK  170  A    between atoms: _456  and  _459
REMARK  171  A    between atoms: _459  and  _460
REMARK  172  A    between atoms: _460  and  _461
REMARK  173  A    between atoms: _461  and  _462
REMARK  174  A    between atoms: _471  and  _473
REMARK  175  A    between atoms: _473  and  _474
REMARK  176  A    between atoms: _473  and  _476
REMARK  177  A    between atoms: _476  and  _477
REMARK  178  A    between atoms: _477  and  _478
REMARK  179  A    between atoms: _478  and  _479
REMARK  180  A    between atoms: _488  and  _490
REMARK  181  A    between atoms: _490  and  _491
REMARK  182  A    between atoms: _493  and  _495
REMARK  183  A    between atoms: _495  and  _496
REMARK  184  A    between atoms: _499  and  _501
REMARK  185  A    between atoms: _501  and  _502
REMARK  186  A    between atoms: _501  and  _504
REMARK  187  A    between atoms: _504  and  _505
REMARK  188  A    between atoms: _511  and  _512
REMARK  189  A    between atoms: _517  and  _519
REMARK  190  A    between atoms: _519  and  _520
REMARK  191  A    between atoms: _522  and  _524
REMARK  192  A    between atoms: _524  and  _525
REMARK  193  A    between atoms: _524  and  _527
REMARK  194  A    between atoms: _527  and  _528
REMARK  195  A    between atoms: _534  and  _536
REMARK  196  A    between atoms: _536  and  _537
REMARK  197  A    between atoms: _536  and  _539
REMARK  198  A    between atoms: _539  and  _540
REMARK  199  A    between atoms: _545  and  _547
REMARK  200  A    between atoms: _547  and  _548
REMARK  201  A    between atoms: _547  and  _550
REMARK  202  A    between atoms: _550  and  _551
REMARK  203  A    between atoms: _551  and  _552
REMARK  204  A    between atoms: _552  and  _553
REMARK  205  A    between atoms: _553  and  ZN_801
REMARK  206  A    between atoms: _555  and  _557
REMARK  207  A    between atoms: _557  and  _558
REMARK  208  A    between atoms: _561  and  _563
REMARK  209  A    between atoms: _563  and  _564
REMARK  210  A    between atoms: _566  and  _568
REMARK  211  A    between atoms: _568  and  _569
REMARK  212  A    between atoms: _568  and  _571
REMARK  213  A    between atoms: _571  and  _572
REMARK  214  A    between atoms: _575  and  _577
REMARK  215  A    between atoms: _577  and  _578
REMARK  216  A    between atoms: _581  and  _583
REMARK  217  A    between atoms: _583  and  _584
REMARK  218  A    between atoms: _583  and  _586
REMARK  219  A    between atoms: _586  and  _587
REMARK  220  A    between atoms: _587  and  _588
REMARK  221  A    between atoms: _591  and  _593
REMARK  222  A    between atoms: _593  and  _594
REMARK  223  A    between atoms: _593  and  _596
REMARK  224  A    between atoms: _596  and  _597
REMARK  225  A    between atoms: _597  and  _598
REMARK  226  A    between atoms: _598  and  _599
REMARK  227  A    between atoms: _599  and  _600
REMARK  228  A    between atoms: _604  and  _606
REMARK  229  A    between atoms: _606  and  _607
REMARK  230  A    between atoms: _606  and  _609
REMARK  231  A    between atoms: _609  and  _610
REMARK  232  A    between atoms: _616  and  _618
REMARK  233  A    between atoms: _618  and  _619
REMARK  234  A    between atoms: _618  and  _621
REMARK  235  A    between atoms: _621  and  _622
REMARK  236  A    between atoms: _628  and  _630
REMARK  237  A    between atoms: _630  and  _631
REMARK  238  A    between atoms: _633  and  _635
REMARK  239  A    between atoms: _635  and  _636
REMARK  240  A    between atoms: _635  and  _638
REMARK  241  A    between atoms: _641  and  _643
REMARK  242  A    between atoms: _643  and  _644
REMARK  243  A    between atoms: _643  and  _646
REMARK  244  A    between atoms: _646  and  _647
REMARK  245  A    between atoms: _647  and  _648
REMARK  246  A    between atoms: _648  and  _649
REMARK  247  A    between atoms: _649  and  _650
REMARK  248  A    between atoms: _654  and  _656
REMARK  249  A    between atoms: _656  and  _657
REMARK  250  A    between atoms: _656  and  _659
REMARK  251  A    between atoms: _659  and  _660
REMARK  252  A    between atoms: _666  and  _668
REMARK  253  A    between atoms: _668  and  _669
REMARK  254  A    between atoms: _668  and  _671
REMARK  255  A    between atoms: _671  and  _672
REMARK  256  A    between atoms: _677  and  _679
REMARK  257  A    between atoms: _679  and  _680
REMARK  258  A    between atoms: _679  and  _682
REMARK  259  A    between atoms: _682  and  _683
REMARK  260  A    between atoms: _688  and  _690
REMARK  261  A    between atoms: _690  and  _691
REMARK  262  A    between atoms: _690  and  _693
REMARK  263  A    between atoms: _696  and  _698
REMARK  264  A    between atoms: _698  and  _699
REMARK  265  A    between atoms: _698  and  _701
REMARK  266  A    between atoms: _701  and  _702
REMARK  267  A    between atoms: _706  and  _707
REMARK  268  A    between atoms: _712  and  _714
REMARK  269  A    between atoms: _714  and  _715
REMARK  270  A    between atoms: _714  and  _717
REMARK  271  A    between atoms: _717  and  _718
REMARK  272  A    between atoms: _723  and  _724
REMARK  273  A    between atoms: _726  and  _728
REMARK  274  A    between atoms: _728  and  _729
REMARK  275  A    between atoms: _728  and  _731
REMARK  276  A    between atoms: _731  and  _732
REMARK  277  A    between atoms: _732  and  _733
REMARK  278  A    between atoms: _733  and  _734
REMARK  279  A    between atoms: _743  and  _745
REMARK  280  A    between atoms: _745  and  _746
REMARK  281  A    between atoms: _745  and  _748
REMARK  282  A    between atoms: _748  and  _749
REMARK  283  A    between atoms: _754  and  _755
REMARK  284  A    between atoms: _757  and  _759
REMARK  285  A    between atoms: _759  and  _760
REMARK  286  A    between atoms: _759  and  _762
REMARK  287  A    between atoms: _762  and  _763
REMARK  288  A    between atoms: _769  and  _771
REMARK  289  A    between atoms: _771  and  _772
REMARK  290  A    between atoms: _771  and  _774
REMARK  291  A    between atoms: _774  and  _775
REMARK  292  A    between atoms: _777  and  _779
REMARK  293  A    between atoms: _779  and  _780
REMARK  294  A    between atoms: _779  and  _782
REMARK  295  A    between atoms: _782  and  _783
REMARK  296  A    between atoms: _789  and  _791
REMARK  297  A    between atoms: _791  and  _792
REMARK  298  A    between atoms: _791  and  _794
REMARK  299  A    between atoms: _794  and  _795
REMARK  300  A    between atoms: _795  and  _796
REMARK                            x       y       z     vdW  Elec       q    Type
REMARK                         _______ _______ _______ _____ _____    ______ ____
ROOT
ATOM      1  O   HOH     1       9.601  -6.258 -25.661  0.00  0.00    +0.000 OA
ENDROOT
TORSDOF 0
REMARK  Name = ../refined-set-2016/2xyd/2xyd_pocket.pdb
REMARK  300 active torsions:
REMARK  status: ('A' for Active; 'I' for Inactive)
REMARK    1  A    between atoms: _1  and  _3
REMARK    2  A    between atoms: _3  and  _4
REMARK    3  A    between atoms: _3  and  _6
REMARK    4  A    between atoms: _6  and  _7
REMARK    5  A    between atoms: _10  and  _12
REMARK    6  A    between atoms: _12  and  _13
REMARK    7  A    between atoms: _12  and  _15
REMARK    8  A    between atoms: _15  and  _16
REMARK    9  A    between atoms: _21  and  _22
REMARK   10  A    between atoms: _24  and  _26
REMARK   11  A    between atoms: _26  and  _27
REMARK   12  A    between atoms: _26  and  _29
REMARK   13  A    between atoms: _29  and  _30
REMARK   14  A    between atoms: _35  and  _36
REMARK   15  A    between atoms: _38  and  _40
REMARK   16  A    between atoms: _40  and  _41
REMARK   17  A    between atoms: _40  and  _43
REMARK   18  A    between atoms: _43  and  _44
REMARK   19  A    between atoms: _47  and  _49
REMARK   20  A    between atoms: _49  and  _50
REMARK   21  A    between atoms: _49  and  _52
REMARK   22  A    between atoms: _52  and  _53
REMARK   23  A    between atoms: _63  and  _65
REMARK   24  A    between atoms: _65  and  _66
REMARK   25  A    between atoms: _65  and  _68
REMARK   26  A    between atoms: _68  and  _69
REMARK   27  A    between atoms: _69  and  _70
REMARK   28  A    between atoms: _75  and  _77
REMARK   29  A    between atoms: _77  and  _78
REMARK   30  A    between atoms: _77  and  _80
REMARK   31  A    between atoms: _80  and  _81
REMARK   32  A    between atoms: _83  and  _85
REMARK   33  A    between atoms: _85  and  _86
REMARK   34  A    between atoms: _85  and  _88
REMARK   35  A    between atoms: _88  and  _89
REMARK   36  A    between atoms: _99  and  _101
REMARK   37  A    between atoms: _101  and  _102
REMARK   38  A    between atoms: _101  and  _104
REMARK   39  A    between atoms: _104  and  _105
REMARK   40  A    between atoms: _105  and  _106
REMARK   41  A    between atoms: _109  and  _111
REMARK   42  A    between atoms: _111  and  _112
REMARK   43  A    between atoms: _111  and  _114
REMARK   44  A    between atoms: _114  and  _115
REMARK   45  A    between atoms: _120  and  _122
REMARK   46  A    between atoms: _122  and  _123
REMARK   47  A    between atoms: _122  and  _125
REMARK   48  A    between atoms: _128  and  _130
REMARK   49  A    between atoms: _130  and  _131
REMARK   50  A    between atoms: _130  and  _133
REMARK   51  A    between atoms: _135  and  _137
REMARK   52  A    between atoms: _137  and  _138
REMARK   53  A    between atoms: _137  and  _140
REMARK   54  A    between atoms: _140  and  _141
REMARK   55  A    between atoms: _146  and  _148
REMARK   56  A    between atoms: _148  and  _149
REMARK   57  A    between atoms: _152  and  _154
REMARK   58  A    between atoms: _154  and  _155
REMARK   59  A    between atoms: _154  and  _157
REMARK   60  A    between atoms: _157  and  _158
REMARK   61  A    between atoms: _160  and  _162
REMARK   62  A    between atoms: _162  and  _163
REMARK   63  A    between atoms: _166  and  _168
REMARK   64  A    between atoms: _168  and  _169
REMARK   65  A    between atoms: _168  and  _171
REMARK   66  A    between atoms: _171  and  _172
REMARK   67  A    between atoms: _182  and  _184
REMARK   68  A    between atoms: _184  and  _185
REMARK   69  A    between atoms: _184  and  _187
REMARK   70  A    between atoms: _187  and  _188
REMARK   71  A    between atoms: _191  and  _193
REMARK   72  A    between atoms: _193  and  _194
REMARK   73  A    between atoms: _193  and  _196
REMARK   74  A    between atoms: _196  and  _197
REMARK   75  A    between atoms: _202  and  _203
REMARK   76  A    between atoms: _205  and  _207
REMARK   77  A    between atoms: _207  and  _208
REMARK   78  A    between atoms: _207  and  _210
REMARK   79  A    between atoms: _210  and  _211
REMARK   80  A    between atoms: _211  and  _212
REMARK   81  A    between atoms: _212  and  _213
REMARK   82  A    between atoms: _222  and  _224
REMARK   83  A    between atoms: _224  and  _225
REMARK   84  A    between atoms: _224  and  _227
REMARK   85  A    between atoms: _227  and  _228
REMARK   86  A    between atoms: _231  and  _233
REMARK   87  A    between atoms: _233  and  _234
REMARK   88  A    between atoms: _233  and  _236
REMARK   89  A    between atoms: _236  and  _237
REMARK   90  A    between atoms: _237  and  _238
REMARK   91  A    between atoms: _238  and  _239
REMARK   92  A    between atoms: _239  and  _240
REMARK   93  A    between atoms: _244  and  _246
REMARK   94  A    between atoms: _246  and  _247
REMARK   95  A    between atoms: _246  and  _249
REMARK   96  A    between atoms: _249  and  _250
REMARK   97  A    between atoms: _250  and  _251
REMARK   98  A    between atoms: _256  and  _258
REMARK   99  A    between atoms: _258  and  _259
REMARK  100  A    between atoms: _258  and  _261
REMARK  101  A    between atoms: _261  and  _262
REMARK  102  A    between atoms: _262  and  _263
REMARK  103  A    between atoms: _263  and  _264
REMARK  104  A    between atoms: _273  and  _275
REMARK  105  A    between atoms: _275  and  _276
REMARK  106  A    between atoms: _275  and  _278
REMARK  107  A    between atoms: _278  and  _279
REMARK  108  A    between atoms: _282  and  _284
REMARK  109  A    between atoms: _284  and  _285
REMARK  110  A    between atoms: _284  and  _287
REMARK  111  A    between atoms: _287  and  _288
REMARK  112  A    between atoms: _288  and  _289
REMARK  113  A    between atoms: _291  and  _293
REMARK  114  A    between atoms: _293  and  _294
REMARK  115  A    between atoms: _293  and  _296
REMARK  116  A    between atoms: _296  and  _297
REMARK  117  A    between atoms: _300  and  _302
REMARK  118  A    between atoms: _302  and  _303
REMARK  119  A    between atoms: _302  and  _305
REMARK  120  A    between atoms: _305  and  _306
REMARK  121  A    between atoms: _306  and  _307
REMARK  122  A    between atoms: _312  and  _314
REMARK  123  A    between atoms: _314  and  _315
REMARK  124  A    between atoms: _314  and  _317
REMARK  125  A    between atoms: _317  and  _318
REMARK  126  A    between atoms: _321  and  _323
REMARK  127  A    between atoms: _323  and  _324
REMARK  128  A    between atoms: _323  and  _326
REMARK  129  A    between atoms: _326  and  _327
REMARK  130  A    between atoms: _329  and  _331
REMARK  131  A    between atoms: _331  and  _332
REMARK  132  A    between atoms: _331  and  _334
REMARK  133  A    between atoms: _334  and  _335
REMARK  134  A    between atoms: _338  and  _340
REMARK  135  A    between atoms: _340  and  _341
REMARK  136  A    between atoms: _340  and  _343
REMARK  137  A    between atoms: _346  and  _348
REMARK  138  A    between atoms: _348  and  _349
REMARK  139  A    between atoms: _348  and  _351
REMARK  140  A    between atoms: _351  and  _352
REMARK  141  A    between atoms: _357  and  _359
REMARK  142  A    between atoms: _370  and  _373
REMARK  143  A    between atoms: _373  and  _374
REMARK  144  A    between atoms: _374  and  _375
REMARK  145  A    between atoms: _380  and  _383
REMARK  146  A    between atoms: _383  and  _384
REMARK  147  A    between atoms: _384  and  _385
REMARK  148  A    between atoms: _394  and  _395
REMARK  149  A    between atoms: _403  and  _405
REMARK  150  A    between atoms: _405  and  _406
REMARK  151  A    between atoms: _405  and  _408
REMARK  152  A    between atoms: _408  and  _409
REMARK  153  A    between atoms: _412  and  _414
REMARK  154  A    between atoms: _414  and  _415
REMARK  155  A    between atoms: _414  and  _417
REMARK  156  A    between atoms: _417  and  _418
REMARK  157  A    between atoms: _423  and  _424
REMARK  158  A    between atoms: _426  and  _428
REMARK  159  A    between atoms: _428  and  _429
REMARK  160  A    between atoms: _428  and  _431
REMARK  161  A    between atoms: _431  and  _432
REMARK  162  A    between atoms: _437  and  _438
REMARK  163  A    between atoms: _440  and  _442
REMARK  164  A    between atoms: _442  and  _443
REMARK  165  A    between atoms: _442  and  _445
REMARK  166  A    between atoms: _445  and  _446
REMARK  167  A    between atoms: _451  and  _452
REMARK  168  A    between atoms: _454  and  _456
REMARK  169  A    between atoms: _456  and  _457
REMARK  170  A    between atoms: _456  and  _459
REMARK  171  A    between atoms: _459  and  _460
REMARK  172  A    between atoms: _460  and  _461
REMARK  173  A    between atoms: _461  and  _462
REMARK  174  A    between atoms: _471  and  _473
REMARK  175  A    between atoms: _473  and  _474
REMARK  176  A    between atoms: _473  and  _476
REMARK  177  A    between atoms: _476  and  _477
REMARK  178  A    between atoms: _477  and  _478
REMARK  179  A    between atoms: _478  and  _479
REMARK  180  A    between atoms: _488  and  _490
REMARK  181  A    between atoms: _490  and  _491
REMARK  182  A    between atoms: _493  and  _495
REMARK  183  A    between atoms: _495  and  _496
REMARK  184  A    between atoms: _499  and  _501
REMARK  185  A    between atoms: _501  and  _502
REMARK  186  A    between atoms: _501  and  _504
REMARK  187  A    between atoms: _504  and  _505
REMARK  188  A    between atoms: _511  and  _512
REMARK  189  A    between atoms: _517  and  _519
REMARK  190  A    between atoms: _519  and  _520
REMARK  191  A    between atoms: _522  and  _524
REMARK  192  A    between atoms: _524  and  _525
REMARK  193  A    between atoms: _524  and  _527
REMARK  194  A    between atoms: _527  and  _528
REMARK  195  A    between atoms: _534  and  _536
REMARK  196  A    between atoms: _536  and  _537
REMARK  197  A    between atoms: _536  and  _539
REMARK  198  A    between atoms: _539  and  _540
REMARK  199  A    between atoms: _545  and  _547
REMARK  200  A    between atoms: _547  and  _548
REMARK  201  A    between atoms: _547  and  _550
REMARK  202  A    between atoms: _550  and  _551
REMARK  203  A    between atoms: _551  and  _552
REMARK  204  A    between atoms: _552  and  _553
REMARK  205  A    between atoms: _553  and  ZN_801
REMARK  206  A    between atoms: _555  and  _557
REMARK  207  A    between atoms: _557  and  _558
REMARK  208  A    between atoms: _561  and  _563
REMARK  209  A    between atoms: _563  and  _564
REMARK  210  A    between atoms: _566  and  _568
REMARK  211  A    between atoms: _568  and  _569
REMARK  212  A    between atoms: _568  and  _571
REMARK  213  A    between atoms: _571  and  _572
REMARK  214  A    between atoms: _575  and  _577
REMARK  215  A    between atoms: _577  and  _578
REMARK  216  A    between atoms: _581  and  _583
REMARK  217  A    between atoms: _583  and  _584
REMARK  218  A    between atoms: _583  and  _586
REMARK  219  A    between atoms: _586  and  _587
REMARK  220  A    between atoms: _587  and  _588
REMARK  221  A    between atoms: _591  and  _593
REMARK  222  A    between atoms: _593  and  _594
REMARK  223  A    between atoms: _593  and  _596
REMARK  224  A    between atoms: _596  and  _597
REMARK  225  A    between atoms: _597  and  _598
REMARK  226  A    between atoms: _598  and  _599
REMARK  227  A    between atoms: _599  and  _600
REMARK  228  A    between atoms: _604  and  _606
REMARK  229  A    between atoms: _606  and  _607
REMARK  230  A    between atoms: _606  and  _609
REMARK  231  A    between atoms: _609  and  _610
REMARK  232  A    between atoms: _616  and  _618
REMARK  233  A    between atoms: _618  and  _619
REMARK  234  A    between atoms: _618  and  _621
REMARK  235  A    between atoms: _621  and  _622
REMARK  236  A    between atoms: _628  and  _630
REMARK  237  A    between atoms: _630  and  _631
REMARK  238  A    between atoms: _633  and  _635
REMARK  239  A    between atoms: _635  and  _636
REMARK  240  A    between atoms: _635  and  _638
REMARK  241  A    between atoms: _641  and  _643
REMARK  242  A    between atoms: _643  and  _644
REMARK  243  A    between atoms: _643  and  _646
REMARK  244  A    between atoms: _646  and  _647
REMARK  245  A    between atoms: _647  and  _648
REMARK  246  A    between atoms: _648  and  _649
REMARK  247  A    between atoms: _649  and  _650
REMARK  248  A    between atoms: _654  and  _656
REMARK  249  A    between atoms: _656  and  _657
REMARK  250  A    between atoms: _656  and  _659
REMARK  251  A    between atoms: _659  and  _660
REMARK  252  A    between atoms: _666  and  _668
REMARK  253  A    between atoms: _668  and  _669
REMARK  254  A    between atoms: _668  and  _671
REMARK  255  A    between atoms: _671  and  _672
REMARK  256  A    between atoms: _677  and  _679
REMARK  257  A    between atoms: _679  and  _680
REMARK  258  A    between atoms: _679  and  _682
REMARK  259  A    between atoms: _682  and  _683
REMARK  260  A    between atoms: _688  and  _690
REMARK  261  A    between atoms: _690  and  _691
REMARK  262  A    between atoms: _690  and  _693
REMARK  263  A    between atoms: _696  and  _698
REMARK  264  A    between atoms: _698  and  _699
REMARK  265  A    between atoms: _698  and  _701
REMARK  266  A    between atoms: _701  and  _702
REMARK  267  A    between atoms: _706  and  _707
REMARK  268  A    between atoms: _712  and  _714
REMARK  269  A    between atoms: _714  and  _715
REMARK  270  A    between atoms: _714  and  _717
REMARK  271  A    between atoms: _717  and  _718
REMARK  272  A    between atoms: _723  and  _724
REMARK  273  A    between atoms: _726  and  _728
REMARK  274  A    between atoms: _728  and  _729
REMARK  275  A    between atoms: _728  and  _731
REMARK  276  A    between atoms: _731  and  _732
REMARK  277  A    between atoms: _732  and  _733
REMARK  278  A    between atoms: _733  and  _734
REMARK  279  A    between atoms: _743  and  _745
REMARK  280  A    between atoms: _745  and  _746
REMARK  281  A    between atoms: _745  and  _748
REMARK  282  A    between atoms: _748  and  _749
REMARK  283  A    between atoms: _754  and  _755
REMARK  284  A    between atoms: _757  and  _759
REMARK  285  A    between atoms: _759  and  _760
REMARK  286  A    between atoms: _759  and  _762
REMARK  287  A    between atoms: _762  and  _763
REMARK  288  A    between atoms: _769  and  _771
REMARK  289  A    between atoms: _771  and  _772
REMARK  290  A    between atoms: _771  and  _774
REMARK  291  A    between atoms: _774  and  _775
REMARK  292  A    between atoms: _777  and  _779
REMARK  293  A    between atoms: _779  and  _780
REMARK  294  A    between atoms: _779  and  _782
REMARK  295  A    between atoms: _782  and  _783
REMARK  296  A    between atoms: _789  and  _791
REMARK  297  A    between atoms: _791  and  _792
REMARK  298  A    between atoms: _791  and  _794
REMARK  299  A    between atoms: _794  and  _795
REMARK  300  A    between atoms: _795  and  _796
REMARK                            x       y       z     vdW  Elec       q    Type
REMARK                         _______ _______ _______ _____ _____    ______ ____
ROOT
ATOM      1  O   HOH     1      15.055  -9.077 -22.699  0.00  0.00    +0.000 OA
ENDROOT
TORSDOF 0
REMARK  Name = ../refined-set-2016/2xyd/2xyd_pocket.pdb
REMARK  300 active torsions:
REMARK  status: ('A' for Active; 'I' for Inactive)
REMARK    1  A    between atoms: _1  and  _3
REMARK    2  A    between atoms: _3  and  _4
REMARK    3  A    between atoms: _3  and  _6
REMARK    4  A    between atoms: _6  and  _7
REMARK    5  A    between atoms: _10  and  _12
REMARK    6  A    between atoms: _12  and  _13
REMARK    7  A    between atoms: _12  and  _15
REMARK    8  A    between atoms: _15  and  _16
REMARK    9  A    between atoms: _21  and  _22
REMARK   10  A    between atoms: _24  and  _26
REMARK   11  A    between atoms: _26  and  _27
REMARK   12  A    between atoms: _26  and  _29
REMARK   13  A    between atoms: _29  and  _30
REMARK   14  A    between atoms: _35  and  _36
REMARK   15  A    between atoms: _38  and  _40
REMARK   16  A    between atoms: _40  and  _41
REMARK   17  A    between atoms: _40  and  _43
REMARK   18  A    between atoms: _43  and  _44
REMARK   19  A    between atoms: _47  and  _49
REMARK   20  A    between atoms: _49  and  _50
REMARK   21  A    between atoms: _49  and  _52
REMARK   22  A    between atoms: _52  and  _53
REMARK   23  A    between atoms: _63  and  _65
REMARK   24  A    between atoms: _65  and  _66
REMARK   25  A    between atoms: _65  and  _68
REMARK   26  A    between atoms: _68  and  _69
REMARK   27  A    between atoms: _69  and  _70
REMARK   28  A    between atoms: _75  and  _77
REMARK   29  A    between atoms: _77  and  _78
REMARK   30  A    between atoms: _77  and  _80
REMARK   31  A    between atoms: _80  and  _81
REMARK   32  A    between atoms: _83  and  _85
REMARK   33  A    between atoms: _85  and  _86
REMARK   34  A    between atoms: _85  and  _88
REMARK   35  A    between atoms: _88  and  _89
REMARK   36  A    between atoms: _99  and  _101
REMARK   37  A    between atoms: _101  and  _102
REMARK   38  A    between atoms: _101  and  _104
REMARK   39  A    between atoms: _104  and  _105
REMARK   40  A    between atoms: _105  and  _106
REMARK   41  A    between atoms: _109  and  _111
REMARK   42  A    between atoms: _111  and  _112
REMARK   43  A    between atoms: _111  and  _114
REMARK   44  A    between atoms: _114  and  _115
REMARK   45  A    between atoms: _120  and  _122
REMARK   46  A    between atoms: _122  and  _123
REMARK   47  A    between atoms: _122  and  _125
REMARK   48  A    between atoms: _128  and  _130
REMARK   49  A    between atoms: _130  and  _131
REMARK   50  A    between atoms: _130  and  _133
REMARK   51  A    between atoms: _135  and  _137
REMARK   52  A    between atoms: _137  and  _138
REMARK   53  A    between atoms: _137  and  _140
REMARK   54  A    between atoms: _140  and  _141
REMARK   55  A    between atoms: _146  and  _148
REMARK   56  A    between atoms: _148  and  _149
REMARK   57  A    between atoms: _152  and  _154
REMARK   58  A    between atoms: _154  and  _155
REMARK   59  A    between atoms: _154  and  _157
REMARK   60  A    between atoms: _157  and  _158
REMARK   61  A    between atoms: _160  and  _162
REMARK   62  A    between atoms: _162  and  _163
REMARK   63  A    between atoms: _166  and  _168
REMARK   64  A    between atoms: _168  and  _169
REMARK   65  A    between atoms: _168  and  _171
REMARK   66  A    between atoms: _171  and  _172
REMARK   67  A    between atoms: _182  and  _184
REMARK   68  A    between atoms: _184  and  _185
REMARK   69  A    between atoms: _184  and  _187
REMARK   70  A    between atoms: _187  and  _188
REMARK   71  A    between atoms: _191  and  _193
REMARK   72  A    between atoms: _193  and  _194
REMARK   73  A    between atoms: _193  and  _196
REMARK   74  A    between atoms: _196  and  _197
REMARK   75  A    between atoms: _202  and  _203
REMARK   76  A    between atoms: _205  and  _207
REMARK   77  A    between atoms: _207  and  _208
REMARK   78  A    between atoms: _207  and  _210
REMARK   79  A    between atoms: _210  and  _211
REMARK   80  A    between atoms: _211  and  _212
REMARK   81  A    between atoms: _212  and  _213
REMARK   82  A    between atoms: _222  and  _224
REMARK   83  A    between atoms: _224  and  _225
REMARK   84  A    between atoms: _224  and  _227
REMARK   85  A    between atoms: _227  and  _228
REMARK   86  A    between atoms: _231  and  _233
REMARK   87  A    between atoms: _233  and  _234
REMARK   88  A    between atoms: _233  and  _236
REMARK   89  A    between atoms: _236  and  _237
REMARK   90  A    between atoms: _237  and  _238
REMARK   91  A    between atoms: _238  and  _239
REMARK   92  A    between atoms: _239  and  _240
REMARK   93  A    between atoms: _244  and  _246
REMARK   94  A    between atoms: _246  and  _247
REMARK   95  A    between atoms: _246  and  _249
REMARK   96  A    between atoms: _249  and  _250
REMARK   97  A    between atoms: _250  and  _251
REMARK   98  A    between atoms: _256  and  _258
REMARK   99  A    between atoms: _258  and  _259
REMARK  100  A    between atoms: _258  and  _261
REMARK  101  A    between atoms: _261  and  _262
REMARK  102  A    between atoms: _262  and  _263
REMARK  103  A    between atoms: _263  and  _264
REMARK  104  A    between atoms: _273  and  _275
REMARK  105  A    between atoms: _275  and  _276
REMARK  106  A    between atoms: _275  and  _278
REMARK  107  A    between atoms: _278  and  _279
REMARK  108  A    between atoms: _282  and  _284
REMARK  109  A    between atoms: _284  and  _285
REMARK  110  A    between atoms: _284  and  _287
REMARK  111  A    between atoms: _287  and  _288
REMARK  112  A    between atoms: _288  and  _289
REMARK  113  A    between atoms: _291  and  _293
REMARK  114  A    between atoms: _293  and  _294
REMARK  115  A    between atoms: _293  and  _296
REMARK  116  A    between atoms: _296  and  _297
REMARK  117  A    between atoms: _300  and  _302
REMARK  118  A    between atoms: _302  and  _303
REMARK  119  A    between atoms: _302  and  _305
REMARK  120  A    between atoms: _305  and  _306
REMARK  121  A    between atoms: _306  and  _307
REMARK  122  A    between atoms: _312  and  _314
REMARK  123  A    between atoms: _314  and  _315
REMARK  124  A    between atoms: _314  and  _317
REMARK  125  A    between atoms: _317  and  _318
REMARK  126  A    between atoms: _321  and  _323
REMARK  127  A    between atoms: _323  and  _324
REMARK  128  A    between atoms: _323  and  _326
REMARK  129  A    between atoms: _326  and  _327
REMARK  130  A    between atoms: _329  and  _331
REMARK  131  A    between atoms: _331  and  _332
REMARK  132  A    between atoms: _331  and  _334
REMARK  133  A    between atoms: _334  and  _335
REMARK  134  A    between atoms: _338  and  _340
REMARK  135  A    between atoms: _340  and  _341
REMARK  136  A    between atoms: _340  and  _343
REMARK  137  A    between atoms: _346  and  _348
REMARK  138  A    between atoms: _348  and  _349
REMARK  139  A    between atoms: _348  and  _351
REMARK  140  A    between atoms: _351  and  _352
REMARK  141  A    between atoms: _357  and  _359
REMARK  142  A    between atoms: _370  and  _373
REMARK  143  A    between atoms: _373  and  _374
REMARK  144  A    between atoms: _374  and  _375
REMARK  145  A    between atoms: _380  and  _383
REMARK  146  A    between atoms: _383  and  _384
REMARK  147  A    between atoms: _384  and  _385
REMARK  148  A    between atoms: _394  and  _395
REMARK  149  A    between atoms: _403  and  _405
REMARK  150  A    between atoms: _405  and  _406
REMARK  151  A    between atoms: _405  and  _408
REMARK  152  A    between atoms: _408  and  _409
REMARK  153  A    between atoms: _412  and  _414
REMARK  154  A    between atoms: _414  and  _415
REMARK  155  A    between atoms: _414  and  _417
REMARK  156  A    between atoms: _417  and  _418
REMARK  157  A    between atoms: _423  and  _424
REMARK  158  A    between atoms: _426  and  _428
REMARK  159  A    between atoms: _428  and  _429
REMARK  160  A    between atoms: _428  and  _431
REMARK  161  A    between atoms: _431  and  _432
REMARK  162  A    between atoms: _437  and  _438
REMARK  163  A    between atoms: _440  and  _442
REMARK  164  A    between atoms: _442  and  _443
REMARK  165  A    between atoms: _442  and  _445
REMARK  166  A    between atoms: _445  and  _446
REMARK  167  A    between atoms: _451  and  _452
REMARK  168  A    between atoms: _454  and  _456
REMARK  169  A    between atoms: _456  and  _457
REMARK  170  A    between atoms: _456  and  _459
REMARK  171  A    between atoms: _459  and  _460
REMARK  172  A    between atoms: _460  and  _461
REMARK  173  A    between atoms: _461  and  _462
REMARK  174  A    between atoms: _471  and  _473
REMARK  175  A    between atoms: _473  and  _474
REMARK  176  A    between atoms: _473  and  _476
REMARK  177  A    between atoms: _476  and  _477
REMARK  178  A    between atoms: _477  and  _478
REMARK  179  A    between atoms: _478  and  _479
REMARK  180  A    between atoms: _488  and  _490
REMARK  181  A    between atoms: _490  and  _491
REMARK  182  A    between atoms: _493  and  _495
REMARK  183  A    between atoms: _495  and  _496
REMARK  184  A    between atoms: _499  and  _501
REMARK  185  A    between atoms: _501  and  _502
REMARK  186  A    between atoms: _501  and  _504
REMARK  187  A    between atoms: _504  and  _505
REMARK  188  A    between atoms: _511  and  _512
REMARK  189  A    between atoms: _517  and  _519
REMARK  190  A    between atoms: _519  and  _520
REMARK  191  A    between atoms: _522  and  _524
REMARK  192  A    between atoms: _524  and  _525
REMARK  193  A    between atoms: _524  and  _527
REMARK  194  A    between atoms: _527  and  _528
REMARK  195  A    between atoms: _534  and  _536
REMARK  196  A    between atoms: _536  and  _537
REMARK  197  A    between atoms: _536  and  _539
REMARK  198  A    between atoms: _539  and  _540
REMARK  199  A    between atoms: _545  and  _547
REMARK  200  A    between atoms: _547  and  _548
REMARK  201  A    between atoms: _547  and  _550
REMARK  202  A    between atoms: _550  and  _551
REMARK  203  A    between atoms: _551  and  _552
REMARK  204  A    between atoms: _552  and  _553
REMARK  205  A    between atoms: _553  and  ZN_801
REMARK  206  A    between atoms: _555  and  _557
REMARK  207  A    between atoms: _557  and  _558
REMARK  208  A    between atoms: _561  and  _563
REMARK  209  A    between atoms: _563  and  _564
REMARK  210  A    between atoms: _566  and  _568
REMARK  211  A    between atoms: _568  and  _569
REMARK  212  A    between atoms: _568  and  _571
REMARK  213  A    between atoms: _571  and  _572
REMARK  214  A    between atoms: _575  and  _577
REMARK  215  A    between atoms: _577  and  _578
REMARK  216  A    between atoms: _581  and  _583
REMARK  217  A    between atoms: _583  and  _584
REMARK  218  A    between atoms: _583  and  _586
REMARK  219  A    between atoms: _586  and  _587
REMARK  220  A    between atoms: _587  and  _588
REMARK  221  A    between atoms: _591  and  _593
REMARK  222  A    between atoms: _593  and  _594
REMARK  223  A    between atoms: _593  and  _596
REMARK  224  A    between atoms: _596  and  _597
REMARK  225  A    between atoms: _597  and  _598
REMARK  226  A    between atoms: _598  and  _599
REMARK  227  A    between atoms: _599  and  _600
REMARK  228  A    between atoms: _604  and  _606
REMARK  229  A    between atoms: _606  and  _607
REMARK  230  A    between atoms: _606  and  _609
REMARK  231  A    between atoms: _609  and  _610
REMARK  232  A    between atoms: _616  and  _618
REMARK  233  A    between atoms: _618  and  _619
REMARK  234  A    between atoms: _618  and  _621
REMARK  235  A    between atoms: _621  and  _622
REMARK  236  A    between atoms: _628  and  _630
REMARK  237  A    between atoms: _630  and  _631
REMARK  238  A    between atoms: _633  and  _635
REMARK  239  A    between atoms: _635  and  _636
REMARK  240  A    between atoms: _635  and  _638
REMARK  241  A    between atoms: _641  and  _643
REMARK  242  A    between atoms: _643  and  _644
REMARK  243  A    between atoms: _643  and  _646
REMARK  244  A    between atoms: _646  and  _647
REMARK  245  A    between atoms: _647  and  _648
REMARK  246  A    between atoms: _648  and  _649
REMARK  247  A    between atoms: _649  and  _650
REMARK  248  A    between atoms: _654  and  _656
REMARK  249  A    between atoms: _656  and  _657
REMARK  250  A    between atoms: _656  and  _659
REMARK  251  A    between atoms: _659  and  _660
REMARK  252  A    between atoms: _666  and  _668
REMARK  253  A    between atoms: _668  and  _669
REMARK  254  A    between atoms: _668  and  _671
REMARK  255  A    between atoms: _671  and  _672
REMARK  256  A    between atoms: _677  and  _679
REMARK  257  A    between atoms: _679  and  _680
REMARK  258  A    between atoms: _679  and  _682
REMARK  259  A    between atoms: _682  and  _683
REMARK  260  A    between atoms: _688  and  _690
REMARK  261  A    between atoms: _690  and  _691
REMARK  262  A    between atoms: _690  and  _693
REMARK  263  A    between atoms: _696  and  _698
REMARK  264  A    between atoms: _698  and  _699
REMARK  265  A    between atoms: _698  and  _701
REMARK  266  A    between atoms: _701  and  _702
REMARK  267  A    between atoms: _706  and  _707
REMARK  268  A    between atoms: _712  and  _714
REMARK  269  A    between atoms: _714  and  _715
REMARK  270  A    between atoms: _714  and  _717
REMARK  271  A    between atoms: _717  and  _718
REMARK  272  A    between atoms: _723  and  _724
REMARK  273  A    between atoms: _726  and  _728
REMARK  274  A    between atoms: _728  and  _729
REMARK  275  A    between atoms: _728  and  _731
REMARK  276  A    between atoms: _731  and  _732
REMARK  277  A    between atoms: _732  and  _733
REMARK  278  A    between atoms: _733  and  _734
REMARK  279  A    between atoms: _743  and  _745
REMARK  280  A    between atoms: _745  and  _746
REMARK  281  A    between atoms: _745  and  _748
REMARK  282  A    between atoms: _748  and  _749
REMARK  283  A    between atoms: _754  and  _755
REMARK  284  A    between atoms: _757  and  _759
REMARK  285  A    between atoms: _759  and  _760
REMARK  286  A    between atoms: _759  and  _762
REMARK  287  A    between atoms: _762  and  _763
REMARK  288  A    between atoms: _769  and  _771
REMARK  289  A    between atoms: _771  and  _772
REMARK  290  A    between atoms: _771  and  _774
REMARK  291  A    between atoms: _774  and  _775
REMARK  292  A    between atoms: _777  and  _779
REMARK  293  A    between atoms: _779  and  _780
REMARK  294  A    between atoms: _779  and  _782
REMARK  295  A    between atoms: _782  and  _783
REMARK  296  A    between atoms: _789  and  _791
REMARK  297  A    between atoms: _791  and  _792
REMARK  298  A    between atoms: _791  and  _794
REMARK  299  A    between atoms: _794  and  _795
REMARK  300  A    between atoms: _795  and  _796
REMARK                            x       y       z     vdW  Elec       q    Type
REMARK                         _______ _______ _______ _____ _____    ______ ____
ROOT
ATOM      1  O   HOH     1      -4.060 -13.813 -28.235  0.00  0.00    +0.000 OA
ENDROOT
TORSDOF 0
REMARK  Name = ../refined-set-2016/2xyd/2xyd_pocket.pdb
REMARK  300 active torsions:
REMARK  status: ('A' for Active; 'I' for Inactive)
REMARK    1  A    between atoms: _1  and  _3
REMARK    2  A    between atoms: _3  and  _4
REMARK    3  A    between atoms: _3  and  _6
REMARK    4  A    between atoms: _6  and  _7
REMARK    5  A    between atoms: _10  and  _12
REMARK    6  A    between atoms: _12  and  _13
REMARK    7  A    between atoms: _12  and  _15
REMARK    8  A    between atoms: _15  and  _16
REMARK    9  A    between atoms: _21  and  _22
REMARK   10  A    between atoms: _24  and  _26
REMARK   11  A    between atoms: _26  and  _27
REMARK   12  A    between atoms: _26  and  _29
REMARK   13  A    between atoms: _29  and  _30
REMARK   14  A    between atoms: _35  and  _36
REMARK   15  A    between atoms: _38  and  _40
REMARK   16  A    between atoms: _40  and  _41
REMARK   17  A    between atoms: _40  and  _43
REMARK   18  A    between atoms: _43  and  _44
REMARK   19  A    between atoms: _47  and  _49
REMARK   20  A    between atoms: _49  and  _50
REMARK   21  A    between atoms: _49  and  _52
REMARK   22  A    between atoms: _52  and  _53
REMARK   23  A    between atoms: _63  and  _65
REMARK   24  A    between atoms: _65  and  _66
REMARK   25  A    between atoms: _65  and  _68
REMARK   26  A    between atoms: _68  and  _69
REMARK   27  A    between atoms: _69  and  _70
REMARK   28  A    between atoms: _75  and  _77
REMARK   29  A    between atoms: _77  and  _78
REMARK   30  A    between atoms: _77  and  _80
REMARK   31  A    between atoms: _80  and  _81
REMARK   32  A    between atoms: _83  and  _85
REMARK   33  A    between atoms: _85  and  _86
REMARK   34  A    between atoms: _85  and  _88
REMARK   35  A    between atoms: _88  and  _89
REMARK   36  A    between atoms: _99  and  _101
REMARK   37  A    between atoms: _101  and  _102
REMARK   38  A    between atoms: _101  and  _104
REMARK   39  A    between atoms: _104  and  _105
REMARK   40  A    between atoms: _105  and  _106
REMARK   41  A    between atoms: _109  and  _111
REMARK   42  A    between atoms: _111  and  _112
REMARK   43  A    between atoms: _111  and  _114
REMARK   44  A    between atoms: _114  and  _115
REMARK   45  A    between atoms: _120  and  _122
REMARK   46  A    between atoms: _122  and  _123
REMARK   47  A    between atoms: _122  and  _125
REMARK   48  A    between atoms: _128  and  _130
REMARK   49  A    between atoms: _130  and  _131
REMARK   50  A    between atoms: _130  and  _133
REMARK   51  A    between atoms: _135  and  _137
REMARK   52  A    between atoms: _137  and  _138
REMARK   53  A    between atoms: _137  and  _140
REMARK   54  A    between atoms: _140  and  _141
REMARK   55  A    between atoms: _146  and  _148
REMARK   56  A    between atoms: _148  and  _149
REMARK   57  A    between atoms: _152  and  _154
REMARK   58  A    between atoms: _154  and  _155
REMARK   59  A    between atoms: _154  and  _157
REMARK   60  A    between atoms: _157  and  _158
REMARK   61  A    between atoms: _160  and  _162
REMARK   62  A    between atoms: _162  and  _163
REMARK   63  A    between atoms: _166  and  _168
REMARK   64  A    between atoms: _168  and  _169
REMARK   65  A    between atoms: _168  and  _171
REMARK   66  A    between atoms: _171  and  _172
REMARK   67  A    between atoms: _182  and  _184
REMARK   68  A    between atoms: _184  and  _185
REMARK   69  A    between atoms: _184  and  _187
REMARK   70  A    between atoms: _187  and  _188
REMARK   71  A    between atoms: _191  and  _193
REMARK   72  A    between atoms: _193  and  _194
REMARK   73  A    between atoms: _193  and  _196
REMARK   74  A    between atoms: _196  and  _197
REMARK   75  A    between atoms: _202  and  _203
REMARK   76  A    between atoms: _205  and  _207
REMARK   77  A    between atoms: _207  and  _208
REMARK   78  A    between atoms: _207  and  _210
REMARK   79  A    between atoms: _210  and  _211
REMARK   80  A    between atoms: _211  and  _212
REMARK   81  A    between atoms: _212  and  _213
REMARK   82  A    between atoms: _222  and  _224
REMARK   83  A    between atoms: _224  and  _225
REMARK   84  A    between atoms: _224  and  _227
REMARK   85  A    between atoms: _227  and  _228
REMARK   86  A    between atoms: _231  and  _233
REMARK   87  A    between atoms: _233  and  _234
REMARK   88  A    between atoms: _233  and  _236
REMARK   89  A    between atoms: _236  and  _237
REMARK   90  A    between atoms: _237  and  _238
REMARK   91  A    between atoms: _238  and  _239
REMARK   92  A    between atoms: _239  and  _240
REMARK   93  A    between atoms: _244  and  _246
REMARK   94  A    between atoms: _246  and  _247
REMARK   95  A    between atoms: _246  and  _249
REMARK   96  A    between atoms: _249  and  _250
REMARK   97  A    between atoms: _250  and  _251
REMARK   98  A    between atoms: _256  and  _258
REMARK   99  A    between atoms: _258  and  _259
REMARK  100  A    between atoms: _258  and  _261
REMARK  101  A    between atoms: _261  and  _262
REMARK  102  A    between atoms: _262  and  _263
REMARK  103  A    between atoms: _263  and  _264
REMARK  104  A    between atoms: _273  and  _275
REMARK  105  A    between atoms: _275  and  _276
REMARK  106  A    between atoms: _275  and  _278
REMARK  107  A    between atoms: _278  and  _279
REMARK  108  A    between atoms: _282  and  _284
REMARK  109  A    between atoms: _284  and  _285
REMARK  110  A    between atoms: _284  and  _287
REMARK  111  A    between atoms: _287  and  _288
REMARK  112  A    between atoms: _288  and  _289
REMARK  113  A    between atoms: _291  and  _293
REMARK  114  A    between atoms: _293  and  _294
REMARK  115  A    between atoms: _293  and  _296
REMARK  116  A    between atoms: _296  and  _297
REMARK  117  A    between atoms: _300  and  _302
REMARK  118  A    between atoms: _302  and  _303
REMARK  119  A    between atoms: _302  and  _305
REMARK  120  A    between atoms: _305  and  _306
REMARK  121  A    between atoms: _306  and  _307
REMARK  122  A    between atoms: _312  and  _314
REMARK  123  A    between atoms: _314  and  _315
REMARK  124  A    between atoms: _314  and  _317
REMARK  125  A    between atoms: _317  and  _318
REMARK  126  A    between atoms: _321  and  _323
REMARK  127  A    between atoms: _323  and  _324
REMARK  128  A    between atoms: _323  and  _326
REMARK  129  A    between atoms: _326  and  _327
REMARK  130  A    between atoms: _329  and  _331
REMARK  131  A    between atoms: _331  and  _332
REMARK  132  A    between atoms: _331  and  _334
REMARK  133  A    between atoms: _334  and  _335
REMARK  134  A    between atoms: _338  and  _340
REMARK  135  A    between atoms: _340  and  _341
REMARK  136  A    between atoms: _340  and  _343
REMARK  137  A    between atoms: _346  and  _348
REMARK  138  A    between atoms: _348  and  _349
REMARK  139  A    between atoms: _348  and  _351
REMARK  140  A    between atoms: _351  and  _352
REMARK  141  A    between atoms: _357  and  _359
REMARK  142  A    between atoms: _370  and  _373
REMARK  143  A    between atoms: _373  and  _374
REMARK  144  A    between atoms: _374  and  _375
REMARK  145  A    between atoms: _380  and  _383
REMARK  146  A    between atoms: _383  and  _384
REMARK  147  A    between atoms: _384  and  _385
REMARK  148  A    between atoms: _394  and  _395
REMARK  149  A    between atoms: _403  and  _405
REMARK  150  A    between atoms: _405  and  _406
REMARK  151  A    between atoms: _405  and  _408
REMARK  152  A    between atoms: _408  and  _409
REMARK  153  A    between atoms: _412  and  _414
REMARK  154  A    between atoms: _414  and  _415
REMARK  155  A    between atoms: _414  and  _417
REMARK  156  A    between atoms: _417  and  _418
REMARK  157  A    between atoms: _423  and  _424
REMARK  158  A    between atoms: _426  and  _428
REMARK  159  A    between atoms: _428  and  _429
REMARK  160  A    between atoms: _428  and  _431
REMARK  161  A    between atoms: _431  and  _432
REMARK  162  A    between atoms: _437  and  _438
REMARK  163  A    between atoms: _440  and  _442
REMARK  164  A    between atoms: _442  and  _443
REMARK  165  A    between atoms: _442  and  _445
REMARK  166  A    between atoms: _445  and  _446
REMARK  167  A    between atoms: _451  and  _452
REMARK  168  A    between atoms: _454  and  _456
REMARK  169  A    between atoms: _456  and  _457
REMARK  170  A    between atoms: _456  and  _459
REMARK  171  A    between atoms: _459  and  _460
REMARK  172  A    between atoms: _460  and  _461
REMARK  173  A    between atoms: _461  and  _462
REMARK  174  A    between atoms: _471  and  _473
REMARK  175  A    between atoms: _473  and  _474
REMARK  176  A    between atoms: _473  and  _476
REMARK  177  A    between atoms: _476  and  _477
REMARK  178  A    between atoms: _477  and  _478
REMARK  179  A    between atoms: _478  and  _479
REMARK  180  A    between atoms: _488  and  _490
REMARK  181  A    between atoms: _490  and  _491
REMARK  182  A    between atoms: _493  and  _495
REMARK  183  A    between atoms: _495  and  _496
REMARK  184  A    between atoms: _499  and  _501
REMARK  185  A    between atoms: _501  and  _502
REMARK  186  A    between atoms: _501  and  _504
REMARK  187  A    between atoms: _504  and  _505
REMARK  188  A    between atoms: _511  and  _512
REMARK  189  A    between atoms: _517  and  _519
REMARK  190  A    between atoms: _519  and  _520
REMARK  191  A    between atoms: _522  and  _524
REMARK  192  A    between atoms: _524  and  _525
REMARK  193  A    between atoms: _524  and  _527
REMARK  194  A    between atoms: _527  and  _528
REMARK  195  A    between atoms: _534  and  _536
REMARK  196  A    between atoms: _536  and  _537
REMARK  197  A    between atoms: _536  and  _539
REMARK  198  A    between atoms: _539  and  _540
REMARK  199  A    between atoms: _545  and  _547
REMARK  200  A    between atoms: _547  and  _548
REMARK  201  A    between atoms: _547  and  _550
REMARK  202  A    between atoms: _550  and  _551
REMARK  203  A    between atoms: _551  and  _552
REMARK  204  A    between atoms: _552  and  _553
REMARK  205  A    between atoms: _553  and  ZN_801
REMARK  206  A    between atoms: _555  and  _557
REMARK  207  A    between atoms: _557  and  _558
REMARK  208  A    between atoms: _561  and  _563
REMARK  209  A    between atoms: _563  and  _564
REMARK  210  A    between atoms: _566  and  _568
REMARK  211  A    between atoms: _568  and  _569
REMARK  212  A    between atoms: _568  and  _571
REMARK  213  A    between atoms: _571  and  _572
REMARK  214  A    between atoms: _575  and  _577
REMARK  215  A    between atoms: _577  and  _578
REMARK  216  A    between atoms: _581  and  _583
REMARK  217  A    between atoms: _583  and  _584
REMARK  218  A    between atoms: _583  and  _586
REMARK  219  A    between atoms: _586  and  _587
REMARK  220  A    between atoms: _587  and  _588
REMARK  221  A    between atoms: _591  and  _593
REMARK  222  A    between atoms: _593  and  _594
REMARK  223  A    between atoms: _593  and  _596
REMARK  224  A    between atoms: _596  and  _597
REMARK  225  A    between atoms: _597  and  _598
REMARK  226  A    between atoms: _598  and  _599
REMARK  227  A    between atoms: _599  and  _600
REMARK  228  A    between atoms: _604  and  _606
REMARK  229  A    between atoms: _606  and  _607
REMARK  230  A    between atoms: _606  and  _609
REMARK  231  A    between atoms: _609  and  _610
REMARK  232  A    between atoms: _616  and  _618
REMARK  233  A    between atoms: _618  and  _619
REMARK  234  A    between atoms: _618  and  _621
REMARK  235  A    between atoms: _621  and  _622
REMARK  236  A    between atoms: _628  and  _630
REMARK  237  A    between atoms: _630  and  _631
REMARK  238  A    between atoms: _633  and  _635
REMARK  239  A    between atoms: _635  and  _636
REMARK  240  A    between atoms: _635  and  _638
REMARK  241  A    between atoms: _641  and  _643
REMARK  242  A    between atoms: _643  and  _644
REMARK  243  A    between atoms: _643  and  _646
REMARK  244  A    between atoms: _646  and  _647
REMARK  245  A    between atoms: _647  and  _648
REMARK  246  A    between atoms: _648  and  _649
REMARK  247  A    between atoms: _649  and  _650
REMARK  248  A    between atoms: _654  and  _656
REMARK  249  A    between atoms: _656  and  _657
REMARK  250  A    between atoms: _656  and  _659
REMARK  251  A    between atoms: _659  and  _660
REMARK  252  A    between atoms: _666  and  _668
REMARK  253  A    between atoms: _668  and  _669
REMARK  254  A    between atoms: _668  and  _671
REMARK  255  A    between atoms: _671  and  _672
REMARK  256  A    between atoms: _677  and  _679
REMARK  257  A    between atoms: _679  and  _680
REMARK  258  A    between atoms: _679  and  _682
REMARK  259  A    between atoms: _682  and  _683
REMARK  260  A    between atoms: _688  and  _690
REMARK  261  A    between atoms: _690  and  _691
REMARK  262  A    between atoms: _690  and  _693
REMARK  263  A    between atoms: _696  and  _698
REMARK  264  A    between atoms: _698  and  _699
REMARK  265  A    between atoms: _698  and  _701
REMARK  266  A    between atoms: _701  and  _702
REMARK  267  A    between atoms: _706  and  _707
REMARK  268  A    between atoms: _712  and  _714
REMARK  269  A    between atoms: _714  and  _715
REMARK  270  A    between atoms: _714  and  _717
REMARK  271  A    between atoms: _717  and  _718
REMARK  272  A    between atoms: _723  and  _724
REMARK  273  A    between atoms: _726  and  _728
REMARK  274  A    between atoms: _728  and  _729
REMARK  275  A    between atoms: _728  and  _731
REMARK  276  A    between atoms: _731  and  _732
REMARK  277  A    between atoms: _732  and  _733
REMARK  278  A    between atoms: _733  and  _734
REMARK  279  A    between atoms: _743  and  _745
REMARK  280  A    between atoms: _745  and  _746
REMARK  281  A    between atoms: _745  and  _748
REMARK  282  A    between atoms: _748  and  _749
REMARK  283  A    between atoms: _754  and  _755
REMARK  284  A    between atoms: _757  and  _759
REMARK  285  A    between atoms: _759  and  _760
REMARK  286  A    between atoms: _759  and  _762
REMARK  287  A    between atoms: _762  and  _763
REMARK  288  A    between atoms: _769  and  _771
REMARK  289  A    between atoms: _771  and  _772
REMARK  290  A    between atoms: _771  and  _774
REMARK  291  A    between atoms: _774  and  _775
REMARK  292  A    between atoms: _777  and  _779
REMARK  293  A    between atoms: _779  and  _780
REMARK  294  A    between atoms: _779  and  _782
REMARK  295  A    between atoms: _782  and  _783
REMARK  296  A    between atoms: _789  and  _791
REMARK  297  A    between atoms: _791  and  _792
REMARK  298  A    between atoms: _791  and  _794
REMARK  299  A    between atoms: _794  and  _795
REMARK  300  A    between atoms: _795  and  _796
REMARK                            x       y       z     vdW  Elec       q    Type
REMARK                         _______ _______ _______ _____ _____    ______ ____
ROOT
ATOM      1  O   HOH     1       4.970 -14.052 -29.011  0.00  0.00    +0.000 OA
ENDROOT
TORSDOF 0
REMARK  Name = ../refined-set-2016/2xyd/2xyd_pocket.pdb
REMARK  300 active torsions:
REMARK  status: ('A' for Active; 'I' for Inactive)
REMARK    1  A    between atoms: _1  and  _3
REMARK    2  A    between atoms: _3  and  _4
REMARK    3  A    between atoms: _3  and  _6
REMARK    4  A    between atoms: _6  and  _7
REMARK    5  A    between atoms: _10  and  _12
REMARK    6  A    between atoms: _12  and  _13
REMARK    7  A    between atoms: _12  and  _15
REMARK    8  A    between atoms: _15  and  _16
REMARK    9  A    between atoms: _21  and  _22
REMARK   10  A    between atoms: _24  and  _26
REMARK   11  A    between atoms: _26  and  _27
REMARK   12  A    between atoms: _26  and  _29
REMARK   13  A    between atoms: _29  and  _30
REMARK   14  A    between atoms: _35  and  _36
REMARK   15  A    between atoms: _38  and  _40
REMARK   16  A    between atoms: _40  and  _41
REMARK   17  A    between atoms: _40  and  _43
REMARK   18  A    between atoms: _43  and  _44
REMARK   19  A    between atoms: _47  and  _49
REMARK   20  A    between atoms: _49  and  _50
REMARK   21  A    between atoms: _49  and  _52
REMARK   22  A    between atoms: _52  and  _53
REMARK   23  A    between atoms: _63  and  _65
REMARK   24  A    between atoms: _65  and  _66
REMARK   25  A    between atoms: _65  and  _68
REMARK   26  A    between atoms: _68  and  _69
REMARK   27  A    between atoms: _69  and  _70
REMARK   28  A    between atoms: _75  and  _77
REMARK   29  A    between atoms: _77  and  _78
REMARK   30  A    between atoms: _77  and  _80
REMARK   31  A    between atoms: _80  and  _81
REMARK   32  A    between atoms: _83  and  _85
REMARK   33  A    between atoms: _85  and  _86
REMARK   34  A    between atoms: _85  and  _88
REMARK   35  A    between atoms: _88  and  _89
REMARK   36  A    between atoms: _99  and  _101
REMARK   37  A    between atoms: _101  and  _102
REMARK   38  A    between atoms: _101  and  _104
REMARK   39  A    between atoms: _104  and  _105
REMARK   40  A    between atoms: _105  and  _106
REMARK   41  A    between atoms: _109  and  _111
REMARK   42  A    between atoms: _111  and  _112
REMARK   43  A    between atoms: _111  and  _114
REMARK   44  A    between atoms: _114  and  _115
REMARK   45  A    between atoms: _120  and  _122
REMARK   46  A    between atoms: _122  and  _123
REMARK   47  A    between atoms: _122  and  _125
REMARK   48  A    between atoms: _128  and  _130
REMARK   49  A    between atoms: _130  and  _131
REMARK   50  A    between atoms: _130  and  _133
REMARK   51  A    between atoms: _135  and  _137
REMARK   52  A    between atoms: _137  and  _138
REMARK   53  A    between atoms: _137  and  _140
REMARK   54  A    between atoms: _140  and  _141
REMARK   55  A    between atoms: _146  and  _148
REMARK   56  A    between atoms: _148  and  _149
REMARK   57  A    between atoms: _152  and  _154
REMARK   58  A    between atoms: _154  and  _155
REMARK   59  A    between atoms: _154  and  _157
REMARK   60  A    between atoms: _157  and  _158
REMARK   61  A    between atoms: _160  and  _162
REMARK   62  A    between atoms: _162  and  _163
REMARK   63  A    between atoms: _166  and  _168
REMARK   64  A    between atoms: _168  and  _169
REMARK   65  A    between atoms: _168  and  _171
REMARK   66  A    between atoms: _171  and  _172
REMARK   67  A    between atoms: _182  and  _184
REMARK   68  A    between atoms: _184  and  _185
REMARK   69  A    between atoms: _184  and  _187
REMARK   70  A    between atoms: _187  and  _188
REMARK   71  A    between atoms: _191  and  _193
REMARK   72  A    between atoms: _193  and  _194
REMARK   73  A    between atoms: _193  and  _196
REMARK   74  A    between atoms: _196  and  _197
REMARK   75  A    between atoms: _202  and  _203
REMARK   76  A    between atoms: _205  and  _207
REMARK   77  A    between atoms: _207  and  _208
REMARK   78  A    between atoms: _207  and  _210
REMARK   79  A    between atoms: _210  and  _211
REMARK   80  A    between atoms: _211  and  _212
REMARK   81  A    between atoms: _212  and  _213
REMARK   82  A    between atoms: _222  and  _224
REMARK   83  A    between atoms: _224  and  _225
REMARK   84  A    between atoms: _224  and  _227
REMARK   85  A    between atoms: _227  and  _228
REMARK   86  A    between atoms: _231  and  _233
REMARK   87  A    between atoms: _233  and  _234
REMARK   88  A    between atoms: _233  and  _236
REMARK   89  A    between atoms: _236  and  _237
REMARK   90  A    between atoms: _237  and  _238
REMARK   91  A    between atoms: _238  and  _239
REMARK   92  A    between atoms: _239  and  _240
REMARK   93  A    between atoms: _244  and  _246
REMARK   94  A    between atoms: _246  and  _247
REMARK   95  A    between atoms: _246  and  _249
REMARK   96  A    between atoms: _249  and  _250
REMARK   97  A    between atoms: _250  and  _251
REMARK   98  A    between atoms: _256  and  _258
REMARK   99  A    between atoms: _258  and  _259
REMARK  100  A    between atoms: _258  and  _261
REMARK  101  A    between atoms: _261  and  _262
REMARK  102  A    between atoms: _262  and  _263
REMARK  103  A    between atoms: _263  and  _264
REMARK  104  A    between atoms: _273  and  _275
REMARK  105  A    between atoms: _275  and  _276
REMARK  106  A    between atoms: _275  and  _278
REMARK  107  A    between atoms: _278  and  _279
REMARK  108  A    between atoms: _282  and  _284
REMARK  109  A    between atoms: _284  and  _285
REMARK  110  A    between atoms: _284  and  _287
REMARK  111  A    between atoms: _287  and  _288
REMARK  112  A    between atoms: _288  and  _289
REMARK  113  A    between atoms: _291  and  _293
REMARK  114  A    between atoms: _293  and  _294
REMARK  115  A    between atoms: _293  and  _296
REMARK  116  A    between atoms: _296  and  _297
REMARK  117  A    between atoms: _300  and  _302
REMARK  118  A    between atoms: _302  and  _303
REMARK  119  A    between atoms: _302  and  _305
REMARK  120  A    between atoms: _305  and  _306
REMARK  121  A    between atoms: _306  and  _307
REMARK  122  A    between atoms: _312  and  _314
REMARK  123  A    between atoms: _314  and  _315
REMARK  124  A    between atoms: _314  and  _317
REMARK  125  A    between atoms: _317  and  _318
REMARK  126  A    between atoms: _321  and  _323
REMARK  127  A    between atoms: _323  and  _324
REMARK  128  A    between atoms: _323  and  _326
REMARK  129  A    between atoms: _326  and  _327
REMARK  130  A    between atoms: _329  and  _331
REMARK  131  A    between atoms: _331  and  _332
REMARK  132  A    between atoms: _331  and  _334
REMARK  133  A    between atoms: _334  and  _335
REMARK  134  A    between atoms: _338  and  _340
REMARK  135  A    between atoms: _340  and  _341
REMARK  136  A    between atoms: _340  and  _343
REMARK  137  A    between atoms: _346  and  _348
REMARK  138  A    between atoms: _348  and  _349
REMARK  139  A    between atoms: _348  and  _351
REMARK  140  A    between atoms: _351  and  _352
REMARK  141  A    between atoms: _357  and  _359
REMARK  142  A    between atoms: _370  and  _373
REMARK  143  A    between atoms: _373  and  _374
REMARK  144  A    between atoms: _374  and  _375
REMARK  145  A    between atoms: _380  and  _383
REMARK  146  A    between atoms: _383  and  _384
REMARK  147  A    between atoms: _384  and  _385
REMARK  148  A    between atoms: _394  and  _395
REMARK  149  A    between atoms: _403  and  _405
REMARK  150  A    between atoms: _405  and  _406
REMARK  151  A    between atoms: _405  and  _408
REMARK  152  A    between atoms: _408  and  _409
REMARK  153  A    between atoms: _412  and  _414
REMARK  154  A    between atoms: _414  and  _415
REMARK  155  A    between atoms: _414  and  _417
REMARK  156  A    between atoms: _417  and  _418
REMARK  157  A    between atoms: _423  and  _424
REMARK  158  A    between atoms: _426  and  _428
REMARK  159  A    between atoms: _428  and  _429
REMARK  160  A    between atoms: _428  and  _431
REMARK  161  A    between atoms: _431  and  _432
REMARK  162  A    between atoms: _437  and  _438
REMARK  163  A    between atoms: _440  and  _442
REMARK  164  A    between atoms: _442  and  _443
REMARK  165  A    between atoms: _442  and  _445
REMARK  166  A    between atoms: _445  and  _446
REMARK  167  A    between atoms: _451  and  _452
REMARK  168  A    between atoms: _454  and  _456
REMARK  169  A    between atoms: _456  and  _457
REMARK  170  A    between atoms: _456  and  _459
REMARK  171  A    between atoms: _459  and  _460
REMARK  172  A    between atoms: _460  and  _461
REMARK  173  A    between atoms: _461  and  _462
REMARK  174  A    between atoms: _471  and  _473
REMARK  175  A    between atoms: _473  and  _474
REMARK  176  A    between atoms: _473  and  _476
REMARK  177  A    between atoms: _476  and  _477
REMARK  178  A    between atoms: _477  and  _478
REMARK  179  A    between atoms: _478  and  _479
REMARK  180  A    between atoms: _488  and  _490
REMARK  181  A    between atoms: _490  and  _491
REMARK  182  A    between atoms: _493  and  _495
REMARK  183  A    between atoms: _495  and  _496
REMARK  184  A    between atoms: _499  and  _501
REMARK  185  A    between atoms: _501  and  _502
REMARK  186  A    between atoms: _501  and  _504
REMARK  187  A    between atoms: _504  and  _505
REMARK  188  A    between atoms: _511  and  _512
REMARK  189  A    between atoms: _517  and  _519
REMARK  190  A    between atoms: _519  and  _520
REMARK  191  A    between atoms: _522  and  _524
REMARK  192  A    between atoms: _524  and  _525
REMARK  193  A    between atoms: _524  and  _527
REMARK  194  A    between atoms: _527  and  _528
REMARK  195  A    between atoms: _534  and  _536
REMARK  196  A    between atoms: _536  and  _537
REMARK  197  A    between atoms: _536  and  _539
REMARK  198  A    between atoms: _539  and  _540
REMARK  199  A    between atoms: _545  and  _547
REMARK  200  A    between atoms: _547  and  _548
REMARK  201  A    between atoms: _547  and  _550
REMARK  202  A    between atoms: _550  and  _551
REMARK  203  A    between atoms: _551  and  _552
REMARK  204  A    between atoms: _552  and  _553
REMARK  205  A    between atoms: _553  and  ZN_801
REMARK  206  A    between atoms: _555  and  _557
REMARK  207  A    between atoms: _557  and  _558
REMARK  208  A    between atoms: _561  and  _563
REMARK  209  A    between atoms: _563  and  _564
REMARK  210  A    between atoms: _566  and  _568
REMARK  211  A    between atoms: _568  and  _569
REMARK  212  A    between atoms: _568  and  _571
REMARK  213  A    between atoms: _571  and  _572
REMARK  214  A    between atoms: _575  and  _577
REMARK  215  A    between atoms: _577  and  _578
REMARK  216  A    between atoms: _581  and  _583
REMARK  217  A    between atoms: _583  and  _584
REMARK  218  A    between atoms: _583  and  _586
REMARK  219  A    between atoms: _586  and  _587
REMARK  220  A    between atoms: _587  and  _588
REMARK  221  A    between atoms: _591  and  _593
REMARK  222  A    between atoms: _593  and  _594
REMARK  223  A    between atoms: _593  and  _596
REMARK  224  A    between atoms: _596  and  _597
REMARK  225  A    between atoms: _597  and  _598
REMARK  226  A    between atoms: _598  and  _599
REMARK  227  A    between atoms: _599  and  _600
REMARK  228  A    between atoms: _604  and  _606
REMARK  229  A    between atoms: _606  and  _607
REMARK  230  A    between atoms: _606  and  _609
REMARK  231  A    between atoms: _609  and  _610
REMARK  232  A    between atoms: _616  and  _618
REMARK  233  A    between atoms: _618  and  _619
REMARK  234  A    between atoms: _618  and  _621
REMARK  235  A    between atoms: _621  and  _622
REMARK  236  A    between atoms: _628  and  _630
REMARK  237  A    between atoms: _630  and  _631
REMARK  238  A    between atoms: _633  and  _635
REMARK  239  A    between atoms: _635  and  _636
REMARK  240  A    between atoms: _635  and  _638
REMARK  241  A    between atoms: _641  and  _643
REMARK  242  A    between atoms: _643  and  _644
REMARK  243  A    between atoms: _643  and  _646
REMARK  244  A    between atoms: _646  and  _647
REMARK  245  A    between atoms: _647  and  _648
REMARK  246  A    between atoms: _648  and  _649
REMARK  247  A    between atoms: _649  and  _650
REMARK  248  A    between atoms: _654  and  _656
REMARK  249  A    between atoms: _656  and  _657
REMARK  250  A    between atoms: _656  and  _659
REMARK  251  A    between atoms: _659  and  _660
REMARK  252  A    between atoms: _666  and  _668
REMARK  253  A    between atoms: _668  and  _669
REMARK  254  A    between atoms: _668  and  _671
REMARK  255  A    between atoms: _671  and  _672
REMARK  256  A    between atoms: _677  and  _679
REMARK  257  A    between atoms: _679  and  _680
REMARK  258  A    between atoms: _679  and  _682
REMARK  259  A    between atoms: _682  and  _683
REMARK  260  A    between atoms: _688  and  _690
REMARK  261  A    between atoms: _690  and  _691
REMARK  262  A    between atoms: _690  and  _693
REMARK  263  A    between atoms: _696  and  _698
REMARK  264  A    between atoms: _698  and  _699
REMARK  265  A    between atoms: _698  and  _701
REMARK  266  A    between atoms: _701  and  _702
REMARK  267  A    between atoms: _706  and  _707
REMARK  268  A    between atoms: _712  and  _714
REMARK  269  A    between atoms: _714  and  _715
REMARK  270  A    between atoms: _714  and  _717
REMARK  271  A    between atoms: _717  and  _718
REMARK  272  A    between atoms: _723  and  _724
REMARK  273  A    between atoms: _726  and  _728
REMARK  274  A    between atoms: _728  and  _729
REMARK  275  A    between atoms: _728  and  _731
REMARK  276  A    between atoms: _731  and  _732
REMARK  277  A    between atoms: _732  and  _733
REMARK  278  A    between atoms: _733  and  _734
REMARK  279  A    between atoms: _743  and  _745
REMARK  280  A    between atoms: _745  and  _746
REMARK  281  A    between atoms: _745  and  _748
REMARK  282  A    between atoms: _748  and  _749
REMARK  283  A    between atoms: _754  and  _755
REMARK  284  A    between atoms: _757  and  _759
REMARK  285  A    between atoms: _759  and  _760
REMARK  286  A    between atoms: _759  and  _762
REMARK  287  A    between atoms: _762  and  _763
REMARK  288  A    between atoms: _769  and  _771
REMARK  289  A    between atoms: _771  and  _772
REMARK  290  A    between atoms: _771  and  _774
REMARK  291  A    between atoms: _774  and  _775
REMARK  292  A    between atoms: _777  and  _779
REMARK  293  A    between atoms: _779  and  _780
REMARK  294  A    between atoms: _779  and  _782
REMARK  295  A    between atoms: _782  and  _783
REMARK  296  A    between atoms: _789  and  _791
REMARK  297  A    between atoms: _791  and  _792
REMARK  298  A    between atoms: _791  and  _794
REMARK  299  A    between atoms: _794  and  _795
REMARK  300  A    between atoms: _795  and  _796
REMARK                            x       y       z     vdW  Elec       q    Type
REMARK                         _______ _______ _______ _____ _____    ______ ____
ROOT
ATOM      1  O   HOH     1      -9.491 -25.803 -22.111  0.00  0.00    +0.000 OA
ENDROOT
TORSDOF 0
REMARK  Name = ../refined-set-2016/2xyd/2xyd_pocket.pdb
REMARK  300 active torsions:
REMARK  status: ('A' for Active; 'I' for Inactive)
REMARK    1  A    between atoms: _1  and  _3
REMARK    2  A    between atoms: _3  and  _4
REMARK    3  A    between atoms: _3  and  _6
REMARK    4  A    between atoms: _6  and  _7
REMARK    5  A    between atoms: _10  and  _12
REMARK    6  A    between atoms: _12  and  _13
REMARK    7  A    between atoms: _12  and  _15
REMARK    8  A    between atoms: _15  and  _16
REMARK    9  A    between atoms: _21  and  _22
REMARK   10  A    between atoms: _24  and  _26
REMARK   11  A    between atoms: _26  and  _27
REMARK   12  A    between atoms: _26  and  _29
REMARK   13  A    between atoms: _29  and  _30
REMARK   14  A    between atoms: _35  and  _36
REMARK   15  A    between atoms: _38  and  _40
REMARK   16  A    between atoms: _40  and  _41
REMARK   17  A    between atoms: _40  and  _43
REMARK   18  A    between atoms: _43  and  _44
REMARK   19  A    between atoms: _47  and  _49
REMARK   20  A    between atoms: _49  and  _50
REMARK   21  A    between atoms: _49  and  _52
REMARK   22  A    between atoms: _52  and  _53
REMARK   23  A    between atoms: _63  and  _65
REMARK   24  A    between atoms: _65  and  _66
REMARK   25  A    between atoms: _65  and  _68
REMARK   26  A    between atoms: _68  and  _69
REMARK   27  A    between atoms: _69  and  _70
REMARK   28  A    between atoms: _75  and  _77
REMARK   29  A    between atoms: _77  and  _78
REMARK   30  A    between atoms: _77  and  _80
REMARK   31  A    between atoms: _80  and  _81
REMARK   32  A    between atoms: _83  and  _85
REMARK   33  A    between atoms: _85  and  _86
REMARK   34  A    between atoms: _85  and  _88
REMARK   35  A    between atoms: _88  and  _89
REMARK   36  A    between atoms: _99  and  _101
REMARK   37  A    between atoms: _101  and  _102
REMARK   38  A    between atoms: _101  and  _104
REMARK   39  A    between atoms: _104  and  _105
REMARK   40  A    between atoms: _105  and  _106
REMARK   41  A    between atoms: _109  and  _111
REMARK   42  A    between atoms: _111  and  _112
REMARK   43  A    between atoms: _111  and  _114
REMARK   44  A    between atoms: _114  and  _115
REMARK   45  A    between atoms: _120  and  _122
REMARK   46  A    between atoms: _122  and  _123
REMARK   47  A    between atoms: _122  and  _125
REMARK   48  A    between atoms: _128  and  _130
REMARK   49  A    between atoms: _130  and  _131
REMARK   50  A    between atoms: _130  and  _133
REMARK   51  A    between atoms: _135  and  _137
REMARK   52  A    between atoms: _137  and  _138
REMARK   53  A    between atoms: _137  and  _140
REMARK   54  A    between atoms: _140  and  _141
REMARK   55  A    between atoms: _146  and  _148
REMARK   56  A    between atoms: _148  and  _149
REMARK   57  A    between atoms: _152  and  _154
REMARK   58  A    between atoms: _154  and  _155
REMARK   59  A    between atoms: _154  and  _157
REMARK   60  A    between atoms: _157  and  _158
REMARK   61  A    between atoms: _160  and  _162
REMARK   62  A    between atoms: _162  and  _163
REMARK   63  A    between atoms: _166  and  _168
REMARK   64  A    between atoms: _168  and  _169
REMARK   65  A    between atoms: _168  and  _171
REMARK   66  A    between atoms: _171  and  _172
REMARK   67  A    between atoms: _182  and  _184
REMARK   68  A    between atoms: _184  and  _185
REMARK   69  A    between atoms: _184  and  _187
REMARK   70  A    between atoms: _187  and  _188
REMARK   71  A    between atoms: _191  and  _193
REMARK   72  A    between atoms: _193  and  _194
REMARK   73  A    between atoms: _193  and  _196
REMARK   74  A    between atoms: _196  and  _197
REMARK   75  A    between atoms: _202  and  _203
REMARK   76  A    between atoms: _205  and  _207
REMARK   77  A    between atoms: _207  and  _208
REMARK   78  A    between atoms: _207  and  _210
REMARK   79  A    between atoms: _210  and  _211
REMARK   80  A    between atoms: _211  and  _212
REMARK   81  A    between atoms: _212  and  _213
REMARK   82  A    between atoms: _222  and  _224
REMARK   83  A    between atoms: _224  and  _225
REMARK   84  A    between atoms: _224  and  _227
REMARK   85  A    between atoms: _227  and  _228
REMARK   86  A    between atoms: _231  and  _233
REMARK   87  A    between atoms: _233  and  _234
REMARK   88  A    between atoms: _233  and  _236
REMARK   89  A    between atoms: _236  and  _237
REMARK   90  A    between atoms: _237  and  _238
REMARK   91  A    between atoms: _238  and  _239
REMARK   92  A    between atoms: _239  and  _240
REMARK   93  A    between atoms: _244  and  _246
REMARK   94  A    between atoms: _246  and  _247
REMARK   95  A    between atoms: _246  and  _249
REMARK   96  A    between atoms: _249  and  _250
REMARK   97  A    between atoms: _250  and  _251
REMARK   98  A    between atoms: _256  and  _258
REMARK   99  A    between atoms: _258  and  _259
REMARK  100  A    between atoms: _258  and  _261
REMARK  101  A    between atoms: _261  and  _262
REMARK  102  A    between atoms: _262  and  _263
REMARK  103  A    between atoms: _263  and  _264
REMARK  104  A    between atoms: _273  and  _275
REMARK  105  A    between atoms: _275  and  _276
REMARK  106  A    between atoms: _275  and  _278
REMARK  107  A    between atoms: _278  and  _279
REMARK  108  A    between atoms: _282  and  _284
REMARK  109  A    between atoms: _284  and  _285
REMARK  110  A    between atoms: _284  and  _287
REMARK  111  A    between atoms: _287  and  _288
REMARK  112  A    between atoms: _288  and  _289
REMARK  113  A    between atoms: _291  and  _293
REMARK  114  A    between atoms: _293  and  _294
REMARK  115  A    between atoms: _293  and  _296
REMARK  116  A    between atoms: _296  and  _297
REMARK  117  A    between atoms: _300  and  _302
REMARK  118  A    between atoms: _302  and  _303
REMARK  119  A    between atoms: _302  and  _305
REMARK  120  A    between atoms: _305  and  _306
REMARK  121  A    between atoms: _306  and  _307
REMARK  122  A    between atoms: _312  and  _314
REMARK  123  A    between atoms: _314  and  _315
REMARK  124  A    between atoms: _314  and  _317
REMARK  125  A    between atoms: _317  and  _318
REMARK  126  A    between atoms: _321  and  _323
REMARK  127  A    between atoms: _323  and  _324
REMARK  128  A    between atoms: _323  and  _326
REMARK  129  A    between atoms: _326  and  _327
REMARK  130  A    between atoms: _329  and  _331
REMARK  131  A    between atoms: _331  and  _332
REMARK  132  A    between atoms: _331  and  _334
REMARK  133  A    between atoms: _334  and  _335
REMARK  134  A    between atoms: _338  and  _340
REMARK  135  A    between atoms: _340  and  _341
REMARK  136  A    between atoms: _340  and  _343
REMARK  137  A    between atoms: _346  and  _348
REMARK  138  A    between atoms: _348  and  _349
REMARK  139  A    between atoms: _348  and  _351
REMARK  140  A    between atoms: _351  and  _352
REMARK  141  A    between atoms: _357  and  _359
REMARK  142  A    between atoms: _370  and  _373
REMARK  143  A    between atoms: _373  and  _374
REMARK  144  A    between atoms: _374  and  _375
REMARK  145  A    between atoms: _380  and  _383
REMARK  146  A    between atoms: _383  and  _384
REMARK  147  A    between atoms: _384  and  _385
REMARK  148  A    between atoms: _394  and  _395
REMARK  149  A    between atoms: _403  and  _405
REMARK  150  A    between atoms: _405  and  _406
REMARK  151  A    between atoms: _405  and  _408
REMARK  152  A    between atoms: _408  and  _409
REMARK  153  A    between atoms: _412  and  _414
REMARK  154  A    between atoms: _414  and  _415
REMARK  155  A    between atoms: _414  and  _417
REMARK  156  A    between atoms: _417  and  _418
REMARK  157  A    between atoms: _423  and  _424
REMARK  158  A    between atoms: _426  and  _428
REMARK  159  A    between atoms: _428  and  _429
REMARK  160  A    between atoms: _428  and  _431
REMARK  161  A    between atoms: _431  and  _432
REMARK  162  A    between atoms: _437  and  _438
REMARK  163  A    between atoms: _440  and  _442
REMARK  164  A    between atoms: _442  and  _443
REMARK  165  A    between atoms: _442  and  _445
REMARK  166  A    between atoms: _445  and  _446
REMARK  167  A    between atoms: _451  and  _452
REMARK  168  A    between atoms: _454  and  _456
REMARK  169  A    between atoms: _456  and  _457
REMARK  170  A    between atoms: _456  and  _459
REMARK  171  A    between atoms: _459  and  _460
REMARK  172  A    between atoms: _460  and  _461
REMARK  173  A    between atoms: _461  and  _462
REMARK  174  A    between atoms: _471  and  _473
REMARK  175  A    between atoms: _473  and  _474
REMARK  176  A    between atoms: _473  and  _476
REMARK  177  A    between atoms: _476  and  _477
REMARK  178  A    between atoms: _477  and  _478
REMARK  179  A    between atoms: _478  and  _479
REMARK  180  A    between atoms: _488  and  _490
REMARK  181  A    between atoms: _490  and  _491
REMARK  182  A    between atoms: _493  and  _495
REMARK  183  A    between atoms: _495  and  _496
REMARK  184  A    between atoms: _499  and  _501
REMARK  185  A    between atoms: _501  and  _502
REMARK  186  A    between atoms: _501  and  _504
REMARK  187  A    between atoms: _504  and  _505
REMARK  188  A    between atoms: _511  and  _512
REMARK  189  A    between atoms: _517  and  _519
REMARK  190  A    between atoms: _519  and  _520
REMARK  191  A    between atoms: _522  and  _524
REMARK  192  A    between atoms: _524  and  _525
REMARK  193  A    between atoms: _524  and  _527
REMARK  194  A    between atoms: _527  and  _528
REMARK  195  A    between atoms: _534  and  _536
REMARK  196  A    between atoms: _536  and  _537
REMARK  197  A    between atoms: _536  and  _539
REMARK  198  A    between atoms: _539  and  _540
REMARK  199  A    between atoms: _545  and  _547
REMARK  200  A    between atoms: _547  and  _548
REMARK  201  A    between atoms: _547  and  _550
REMARK  202  A    between atoms: _550  and  _551
REMARK  203  A    between atoms: _551  and  _552
REMARK  204  A    between atoms: _552  and  _553
REMARK  205  A    between atoms: _553  and  ZN_801
REMARK  206  A    between atoms: _555  and  _557
REMARK  207  A    between atoms: _557  and  _558
REMARK  208  A    between atoms: _561  and  _563
REMARK  209  A    between atoms: _563  and  _564
REMARK  210  A    between atoms: _566  and  _568
REMARK  211  A    between atoms: _568  and  _569
REMARK  212  A    between atoms: _568  and  _571
REMARK  213  A    between atoms: _571  and  _572
REMARK  214  A    between atoms: _575  and  _577
REMARK  215  A    between atoms: _577  and  _578
REMARK  216  A    between atoms: _581  and  _583
REMARK  217  A    between atoms: _583  and  _584
REMARK  218  A    between atoms: _583  and  _586
REMARK  219  A    between atoms: _586  and  _587
REMARK  220  A    between atoms: _587  and  _588
REMARK  221  A    between atoms: _591  and  _593
REMARK  222  A    between atoms: _593  and  _594
REMARK  223  A    between atoms: _593  and  _596
REMARK  224  A    between atoms: _596  and  _597
REMARK  225  A    between atoms: _597  and  _598
REMARK  226  A    between atoms: _598  and  _599
REMARK  227  A    between atoms: _599  and  _600
REMARK  228  A    between atoms: _604  and  _606
REMARK  229  A    between atoms: _606  and  _607
REMARK  230  A    between atoms: _606  and  _609
REMARK  231  A    between atoms: _609  and  _610
REMARK  232  A    between atoms: _616  and  _618
REMARK  233  A    between atoms: _618  and  _619
REMARK  234  A    between atoms: _618  and  _621
REMARK  235  A    between atoms: _621  and  _622
REMARK  236  A    between atoms: _628  and  _630
REMARK  237  A    between atoms: _630  and  _631
REMARK  238  A    between atoms: _633  and  _635
REMARK  239  A    between atoms: _635  and  _636
REMARK  240  A    between atoms: _635  and  _638
REMARK  241  A    between atoms: _641  and  _643
REMARK  242  A    between atoms: _643  and  _644
REMARK  243  A    between atoms: _643  and  _646
REMARK  244  A    between atoms: _646  and  _647
REMARK  245  A    between atoms: _647  and  _648
REMARK  246  A    between atoms: _648  and  _649
REMARK  247  A    between atoms: _649  and  _650
REMARK  248  A    between atoms: _654  and  _656
REMARK  249  A    between atoms: _656  and  _657
REMARK  250  A    between atoms: _656  and  _659
REMARK  251  A    between atoms: _659  and  _660
REMARK  252  A    between atoms: _666  and  _668
REMARK  253  A    between atoms: _668  and  _669
REMARK  254  A    between atoms: _668  and  _671
REMARK  255  A    between atoms: _671  and  _672
REMARK  256  A    between atoms: _677  and  _679
REMARK  257  A    between atoms: _679  and  _680
REMARK  258  A    between atoms: _679  and  _682
REMARK  259  A    between atoms: _682  and  _683
REMARK  260  A    between atoms: _688  and  _690
REMARK  261  A    between atoms: _690  and  _691
REMARK  262  A    between atoms: _690  and  _693
REMARK  263  A    between atoms: _696  and  _698
REMARK  264  A    between atoms: _698  and  _699
REMARK  265  A    between atoms: _698  and  _701
REMARK  266  A    between atoms: _701  and  _702
REMARK  267  A    between atoms: _706  and  _707
REMARK  268  A    between atoms: _712  and  _714
REMARK  269  A    between atoms: _714  and  _715
REMARK  270  A    between atoms: _714  and  _717
REMARK  271  A    between atoms: _717  and  _718
REMARK  272  A    between atoms: _723  and  _724
REMARK  273  A    between atoms: _726  and  _728
REMARK  274  A    between atoms: _728  and  _729
REMARK  275  A    between atoms: _728  and  _731
REMARK  276  A    between atoms: _731  and  _732
REMARK  277  A    between atoms: _732  and  _733
REMARK  278  A    between atoms: _733  and  _734
REMARK  279  A    between atoms: _743  and  _745
REMARK  280  A    between atoms: _745  and  _746
REMARK  281  A    between atoms: _745  and  _748
REMARK  282  A    between atoms: _748  and  _749
REMARK  283  A    between atoms: _754  and  _755
REMARK  284  A    between atoms: _757  and  _759
REMARK  285  A    between atoms: _759  and  _760
REMARK  286  A    between atoms: _759  and  _762
REMARK  287  A    between atoms: _762  and  _763
REMARK  288  A    between atoms: _769  and  _771
REMARK  289  A    between atoms: _771  and  _772
REMARK  290  A    between atoms: _771  and  _774
REMARK  291  A    between atoms: _774  and  _775
REMARK  292  A    between atoms: _777  and  _779
REMARK  293  A    between atoms: _779  and  _780
REMARK  294  A    between atoms: _779  and  _782
REMARK  295  A    between atoms: _782  and  _783
REMARK  296  A    between atoms: _789  and  _791
REMARK  297  A    between atoms: _791  and  _792
REMARK  298  A    between atoms: _791  and  _794
REMARK  299  A    between atoms: _794  and  _795
REMARK  300  A    between atoms: _795  and  _796
REMARK                            x       y       z     vdW  Elec       q    Type
REMARK                         _______ _______ _______ _____ _____    ______ ____
ROOT
ATOM      1  O   HOH     1      -6.952 -23.465 -15.608  0.00  0.00    +0.000 OA
ENDROOT
TORSDOF 0
REMARK  Name = ../refined-set-2016/2xyd/2xyd_pocket.pdb
REMARK  300 active torsions:
REMARK  status: ('A' for Active; 'I' for Inactive)
REMARK    1  A    between atoms: _1  and  _3
REMARK    2  A    between atoms: _3  and  _4
REMARK    3  A    between atoms: _3  and  _6
REMARK    4  A    between atoms: _6  and  _7
REMARK    5  A    between atoms: _10  and  _12
REMARK    6  A    between atoms: _12  and  _13
REMARK    7  A    between atoms: _12  and  _15
REMARK    8  A    between atoms: _15  and  _16
REMARK    9  A    between atoms: _21  and  _22
REMARK   10  A    between atoms: _24  and  _26
REMARK   11  A    between atoms: _26  and  _27
REMARK   12  A    between atoms: _26  and  _29
REMARK   13  A    between atoms: _29  and  _30
REMARK   14  A    between atoms: _35  and  _36
REMARK   15  A    between atoms: _38  and  _40
REMARK   16  A    between atoms: _40  and  _41
REMARK   17  A    between atoms: _40  and  _43
REMARK   18  A    between atoms: _43  and  _44
REMARK   19  A    between atoms: _47  and  _49
REMARK   20  A    between atoms: _49  and  _50
REMARK   21  A    between atoms: _49  and  _52
REMARK   22  A    between atoms: _52  and  _53
REMARK   23  A    between atoms: _63  and  _65
REMARK   24  A    between atoms: _65  and  _66
REMARK   25  A    between atoms: _65  and  _68
REMARK   26  A    between atoms: _68  and  _69
REMARK   27  A    between atoms: _69  and  _70
REMARK   28  A    between atoms: _75  and  _77
REMARK   29  A    between atoms: _77  and  _78
REMARK   30  A    between atoms: _77  and  _80
REMARK   31  A    between atoms: _80  and  _81
REMARK   32  A    between atoms: _83  and  _85
REMARK   33  A    between atoms: _85  and  _86
REMARK   34  A    between atoms: _85  and  _88
REMARK   35  A    between atoms: _88  and  _89
REMARK   36  A    between atoms: _99  and  _101
REMARK   37  A    between atoms: _101  and  _102
REMARK   38  A    between atoms: _101  and  _104
REMARK   39  A    between atoms: _104  and  _105
REMARK   40  A    between atoms: _105  and  _106
REMARK   41  A    between atoms: _109  and  _111
REMARK   42  A    between atoms: _111  and  _112
REMARK   43  A    between atoms: _111  and  _114
REMARK   44  A    between atoms: _114  and  _115
REMARK   45  A    between atoms: _120  and  _122
REMARK   46  A    between atoms: _122  and  _123
REMARK   47  A    between atoms: _122  and  _125
REMARK   48  A    between atoms: _128  and  _130
REMARK   49  A    between atoms: _130  and  _131
REMARK   50  A    between atoms: _130  and  _133
REMARK   51  A    between atoms: _135  and  _137
REMARK   52  A    between atoms: _137  and  _138
REMARK   53  A    between atoms: _137  and  _140
REMARK   54  A    between atoms: _140  and  _141
REMARK   55  A    between atoms: _146  and  _148
REMARK   56  A    between atoms: _148  and  _149
REMARK   57  A    between atoms: _152  and  _154
REMARK   58  A    between atoms: _154  and  _155
REMARK   59  A    between atoms: _154  and  _157
REMARK   60  A    between atoms: _157  and  _158
REMARK   61  A    between atoms: _160  and  _162
REMARK   62  A    between atoms: _162  and  _163
REMARK   63  A    between atoms: _166  and  _168
REMARK   64  A    between atoms: _168  and  _169
REMARK   65  A    between atoms: _168  and  _171
REMARK   66  A    between atoms: _171  and  _172
REMARK   67  A    between atoms: _182  and  _184
REMARK   68  A    between atoms: _184  and  _185
REMARK   69  A    between atoms: _184  and  _187
REMARK   70  A    between atoms: _187  and  _188
REMARK   71  A    between atoms: _191  and  _193
REMARK   72  A    between atoms: _193  and  _194
REMARK   73  A    between atoms: _193  and  _196
REMARK   74  A    between atoms: _196  and  _197
REMARK   75  A    between atoms: _202  and  _203
REMARK   76  A    between atoms: _205  and  _207
REMARK   77  A    between atoms: _207  and  _208
REMARK   78  A    between atoms: _207  and  _210
REMARK   79  A    between atoms: _210  and  _211
REMARK   80  A    between atoms: _211  and  _212
REMARK   81  A    between atoms: _212  and  _213
REMARK   82  A    between atoms: _222  and  _224
REMARK   83  A    between atoms: _224  and  _225
REMARK   84  A    between atoms: _224  and  _227
REMARK   85  A    between atoms: _227  and  _228
REMARK   86  A    between atoms: _231  and  _233
REMARK   87  A    between atoms: _233  and  _234
REMARK   88  A    between atoms: _233  and  _236
REMARK   89  A    between atoms: _236  and  _237
REMARK   90  A    between atoms: _237  and  _238
REMARK   91  A    between atoms: _238  and  _239
REMARK   92  A    between atoms: _239  and  _240
REMARK   93  A    between atoms: _244  and  _246
REMARK   94  A    between atoms: _246  and  _247
REMARK   95  A    between atoms: _246  and  _249
REMARK   96  A    between atoms: _249  and  _250
REMARK   97  A    between atoms: _250  and  _251
REMARK   98  A    between atoms: _256  and  _258
REMARK   99  A    between atoms: _258  and  _259
REMARK  100  A    between atoms: _258  and  _261
REMARK  101  A    between atoms: _261  and  _262
REMARK  102  A    between atoms: _262  and  _263
REMARK  103  A    between atoms: _263  and  _264
REMARK  104  A    between atoms: _273  and  _275
REMARK  105  A    between atoms: _275  and  _276
REMARK  106  A    between atoms: _275  and  _278
REMARK  107  A    between atoms: _278  and  _279
REMARK  108  A    between atoms: _282  and  _284
REMARK  109  A    between atoms: _284  and  _285
REMARK  110  A    between atoms: _284  and  _287
REMARK  111  A    between atoms: _287  and  _288
REMARK  112  A    between atoms: _288  and  _289
REMARK  113  A    between atoms: _291  and  _293
REMARK  114  A    between atoms: _293  and  _294
REMARK  115  A    between atoms: _293  and  _296
REMARK  116  A    between atoms: _296  and  _297
REMARK  117  A    between atoms: _300  and  _302
REMARK  118  A    between atoms: _302  and  _303
REMARK  119  A    between atoms: _302  and  _305
REMARK  120  A    between atoms: _305  and  _306
REMARK  121  A    between atoms: _306  and  _307
REMARK  122  A    between atoms: _312  and  _314
REMARK  123  A    between atoms: _314  and  _315
REMARK  124  A    between atoms: _314  and  _317
REMARK  125  A    between atoms: _317  and  _318
REMARK  126  A    between atoms: _321  and  _323
REMARK  127  A    between atoms: _323  and  _324
REMARK  128  A    between atoms: _323  and  _326
REMARK  129  A    between atoms: _326  and  _327
REMARK  130  A    between atoms: _329  and  _331
REMARK  131  A    between atoms: _331  and  _332
REMARK  132  A    between atoms: _331  and  _334
REMARK  133  A    between atoms: _334  and  _335
REMARK  134  A    between atoms: _338  and  _340
REMARK  135  A    between atoms: _340  and  _341
REMARK  136  A    between atoms: _340  and  _343
REMARK  137  A    between atoms: _346  and  _348
REMARK  138  A    between atoms: _348  and  _349
REMARK  139  A    between atoms: _348  and  _351
REMARK  140  A    between atoms: _351  and  _352
REMARK  141  A    between atoms: _357  and  _359
REMARK  142  A    between atoms: _370  and  _373
REMARK  143  A    between atoms: _373  and  _374
REMARK  144  A    between atoms: _374  and  _375
REMARK  145  A    between atoms: _380  and  _383
REMARK  146  A    between atoms: _383  and  _384
REMARK  147  A    between atoms: _384  and  _385
REMARK  148  A    between atoms: _394  and  _395
REMARK  149  A    between atoms: _403  and  _405
REMARK  150  A    between atoms: _405  and  _406
REMARK  151  A    between atoms: _405  and  _408
REMARK  152  A    between atoms: _408  and  _409
REMARK  153  A    between atoms: _412  and  _414
REMARK  154  A    between atoms: _414  and  _415
REMARK  155  A    between atoms: _414  and  _417
REMARK  156  A    between atoms: _417  and  _418
REMARK  157  A    between atoms: _423  and  _424
REMARK  158  A    between atoms: _426  and  _428
REMARK  159  A    between atoms: _428  and  _429
REMARK  160  A    between atoms: _428  and  _431
REMARK  161  A    between atoms: _431  and  _432
REMARK  162  A    between atoms: _437  and  _438
REMARK  163  A    between atoms: _440  and  _442
REMARK  164  A    between atoms: _442  and  _443
REMARK  165  A    between atoms: _442  and  _445
REMARK  166  A    between atoms: _445  and  _446
REMARK  167  A    between atoms: _451  and  _452
REMARK  168  A    between atoms: _454  and  _456
REMARK  169  A    between atoms: _456  and  _457
REMARK  170  A    between atoms: _456  and  _459
REMARK  171  A    between atoms: _459  and  _460
REMARK  172  A    between atoms: _460  and  _461
REMARK  173  A    between atoms: _461  and  _462
REMARK  174  A    between atoms: _471  and  _473
REMARK  175  A    between atoms: _473  and  _474
REMARK  176  A    between atoms: _473  and  _476
REMARK  177  A    between atoms: _476  and  _477
REMARK  178  A    between atoms: _477  and  _478
REMARK  179  A    between atoms: _478  and  _479
REMARK  180  A    between atoms: _488  and  _490
REMARK  181  A    between atoms: _490  and  _491
REMARK  182  A    between atoms: _493  and  _495
REMARK  183  A    between atoms: _495  and  _496
REMARK  184  A    between atoms: _499  and  _501
REMARK  185  A    between atoms: _501  and  _502
REMARK  186  A    between atoms: _501  and  _504
REMARK  187  A    between atoms: _504  and  _505
REMARK  188  A    between atoms: _511  and  _512
REMARK  189  A    between atoms: _517  and  _519
REMARK  190  A    between atoms: _519  and  _520
REMARK  191  A    between atoms: _522  and  _524
REMARK  192  A    between atoms: _524  and  _525
REMARK  193  A    between atoms: _524  and  _527
REMARK  194  A    between atoms: _527  and  _528
REMARK  195  A    between atoms: _534  and  _536
REMARK  196  A    between atoms: _536  and  _537
REMARK  197  A    between atoms: _536  and  _539
REMARK  198  A    between atoms: _539  and  _540
REMARK  199  A    between atoms: _545  and  _547
REMARK  200  A    between atoms: _547  and  _548
REMARK  201  A    between atoms: _547  and  _550
REMARK  202  A    between atoms: _550  and  _551
REMARK  203  A    between atoms: _551  and  _552
REMARK  204  A    between atoms: _552  and  _553
REMARK  205  A    between atoms: _553  and  ZN_801
REMARK  206  A    between atoms: _555  and  _557
REMARK  207  A    between atoms: _557  and  _558
REMARK  208  A    between atoms: _561  and  _563
REMARK  209  A    between atoms: _563  and  _564
REMARK  210  A    between atoms: _566  and  _568
REMARK  211  A    between atoms: _568  and  _569
REMARK  212  A    between atoms: _568  and  _571
REMARK  213  A    between atoms: _571  and  _572
REMARK  214  A    between atoms: _575  and  _577
REMARK  215  A    between atoms: _577  and  _578
REMARK  216  A    between atoms: _581  and  _583
REMARK  217  A    between atoms: _583  and  _584
REMARK  218  A    between atoms: _583  and  _586
REMARK  219  A    between atoms: _586  and  _587
REMARK  220  A    between atoms: _587  and  _588
REMARK  221  A    between atoms: _591  and  _593
REMARK  222  A    between atoms: _593  and  _594
REMARK  223  A    between atoms: _593  and  _596
REMARK  224  A    between atoms: _596  and  _597
REMARK  225  A    between atoms: _597  and  _598
REMARK  226  A    between atoms: _598  and  _599
REMARK  227  A    between atoms: _599  and  _600
REMARK  228  A    between atoms: _604  and  _606
REMARK  229  A    between atoms: _606  and  _607
REMARK  230  A    between atoms: _606  and  _609
REMARK  231  A    between atoms: _609  and  _610
REMARK  232  A    between atoms: _616  and  _618
REMARK  233  A    between atoms: _618  and  _619
REMARK  234  A    between atoms: _618  and  _621
REMARK  235  A    between atoms: _621  and  _622
REMARK  236  A    between atoms: _628  and  _630
REMARK  237  A    between atoms: _630  and  _631
REMARK  238  A    between atoms: _633  and  _635
REMARK  239  A    between atoms: _635  and  _636
REMARK  240  A    between atoms: _635  and  _638
REMARK  241  A    between atoms: _641  and  _643
REMARK  242  A    between atoms: _643  and  _644
REMARK  243  A    between atoms: _643  and  _646
REMARK  244  A    between atoms: _646  and  _647
REMARK  245  A    between atoms: _647  and  _648
REMARK  246  A    between atoms: _648  and  _649
REMARK  247  A    between atoms: _649  and  _650
REMARK  248  A    between atoms: _654  and  _656
REMARK  249  A    between atoms: _656  and  _657
REMARK  250  A    between atoms: _656  and  _659
REMARK  251  A    between atoms: _659  and  _660
REMARK  252  A    between atoms: _666  and  _668
REMARK  253  A    between atoms: _668  and  _669
REMARK  254  A    between atoms: _668  and  _671
REMARK  255  A    between atoms: _671  and  _672
REMARK  256  A    between atoms: _677  and  _679
REMARK  257  A    between atoms: _679  and  _680
REMARK  258  A    between atoms: _679  and  _682
REMARK  259  A    between atoms: _682  and  _683
REMARK  260  A    between atoms: _688  and  _690
REMARK  261  A    between atoms: _690  and  _691
REMARK  262  A    between atoms: _690  and  _693
REMARK  263  A    between atoms: _696  and  _698
REMARK  264  A    between atoms: _698  and  _699
REMARK  265  A    between atoms: _698  and  _701
REMARK  266  A    between atoms: _701  and  _702
REMARK  267  A    between atoms: _706  and  _707
REMARK  268  A    between atoms: _712  and  _714
REMARK  269  A    between atoms: _714  and  _715
REMARK  270  A    between atoms: _714  and  _717
REMARK  271  A    between atoms: _717  and  _718
REMARK  272  A    between atoms: _723  and  _724
REMARK  273  A    between atoms: _726  and  _728
REMARK  274  A    between atoms: _728  and  _729
REMARK  275  A    between atoms: _728  and  _731
REMARK  276  A    between atoms: _731  and  _732
REMARK  277  A    between atoms: _732  and  _733
REMARK  278  A    between atoms: _733  and  _734
REMARK  279  A    between atoms: _743  and  _745
REMARK  280  A    between atoms: _745  and  _746
REMARK  281  A    between atoms: _745  and  _748
REMARK  282  A    between atoms: _748  and  _749
REMARK  283  A    between atoms: _754  and  _755
REMARK  284  A    between atoms: _757  and  _759
REMARK  285  A    between atoms: _759  and  _760
REMARK  286  A    between atoms: _759  and  _762
REMARK  287  A    between atoms: _762  and  _763
REMARK  288  A    between atoms: _769  and  _771
REMARK  289  A    between atoms: _771  and  _772
REMARK  290  A    between atoms: _771  and  _774
REMARK  291  A    between atoms: _774  and  _775
REMARK  292  A    between atoms: _777  and  _779
REMARK  293  A    between atoms: _779  and  _780
REMARK  294  A    between atoms: _779  and  _782
REMARK  295  A    between atoms: _782  and  _783
REMARK  296  A    between atoms: _789  and  _791
REMARK  297  A    between atoms: _791  and  _792
REMARK  298  A    between atoms: _791  and  _794
REMARK  299  A    between atoms: _794  and  _795
REMARK  300  A    between atoms: _795  and  _796
REMARK                            x       y       z     vdW  Elec       q    Type
REMARK                         _______ _______ _______ _____ _____    ______ ____
ROOT
ATOM      1  O   HOH     1      16.386 -20.203 -22.875  0.00  0.00    +0.000 OA
ENDROOT
TORSDOF 0
REMARK  Name = ../refined-set-2016/2xyd/2xyd_pocket.pdb
REMARK  300 active torsions:
REMARK  status: ('A' for Active; 'I' for Inactive)
REMARK    1  A    between atoms: _1  and  _3
REMARK    2  A    between atoms: _3  and  _4
REMARK    3  A    between atoms: _3  and  _6
REMARK    4  A    between atoms: _6  and  _7
REMARK    5  A    between atoms: _10  and  _12
REMARK    6  A    between atoms: _12  and  _13
REMARK    7  A    between atoms: _12  and  _15
REMARK    8  A    between atoms: _15  and  _16
REMARK    9  A    between atoms: _21  and  _22
REMARK   10  A    between atoms: _24  and  _26
REMARK   11  A    between atoms: _26  and  _27
REMARK   12  A    between atoms: _26  and  _29
REMARK   13  A    between atoms: _29  and  _30
REMARK   14  A    between atoms: _35  and  _36
REMARK   15  A    between atoms: _38  and  _40
REMARK   16  A    between atoms: _40  and  _41
REMARK   17  A    between atoms: _40  and  _43
REMARK   18  A    between atoms: _43  and  _44
REMARK   19  A    between atoms: _47  and  _49
REMARK   20  A    between atoms: _49  and  _50
REMARK   21  A    between atoms: _49  and  _52
REMARK   22  A    between atoms: _52  and  _53
REMARK   23  A    between atoms: _63  and  _65
REMARK   24  A    between atoms: _65  and  _66
REMARK   25  A    between atoms: _65  and  _68
REMARK   26  A    between atoms: _68  and  _69
REMARK   27  A    between atoms: _69  and  _70
REMARK   28  A    between atoms: _75  and  _77
REMARK   29  A    between atoms: _77  and  _78
REMARK   30  A    between atoms: _77  and  _80
REMARK   31  A    between atoms: _80  and  _81
REMARK   32  A    between atoms: _83  and  _85
REMARK   33  A    between atoms: _85  and  _86
REMARK   34  A    between atoms: _85  and  _88
REMARK   35  A    between atoms: _88  and  _89
REMARK   36  A    between atoms: _99  and  _101
REMARK   37  A    between atoms: _101  and  _102
REMARK   38  A    between atoms: _101  and  _104
REMARK   39  A    between atoms: _104  and  _105
REMARK   40  A    between atoms: _105  and  _106
REMARK   41  A    between atoms: _109  and  _111
REMARK   42  A    between atoms: _111  and  _112
REMARK   43  A    between atoms: _111  and  _114
REMARK   44  A    between atoms: _114  and  _115
REMARK   45  A    between atoms: _120  and  _122
REMARK   46  A    between atoms: _122  and  _123
REMARK   47  A    between atoms: _122  and  _125
REMARK   48  A    between atoms: _128  and  _130
REMARK   49  A    between atoms: _130  and  _131
REMARK   50  A    between atoms: _130  and  _133
REMARK   51  A    between atoms: _135  and  _137
REMARK   52  A    between atoms: _137  and  _138
REMARK   53  A    between atoms: _137  and  _140
REMARK   54  A    between atoms: _140  and  _141
REMARK   55  A    between atoms: _146  and  _148
REMARK   56  A    between atoms: _148  and  _149
REMARK   57  A    between atoms: _152  and  _154
REMARK   58  A    between atoms: _154  and  _155
REMARK   59  A    between atoms: _154  and  _157
REMARK   60  A    between atoms: _157  and  _158
REMARK   61  A    between atoms: _160  and  _162
REMARK   62  A    between atoms: _162  and  _163
REMARK   63  A    between atoms: _166  and  _168
REMARK   64  A    between atoms: _168  and  _169
REMARK   65  A    between atoms: _168  and  _171
REMARK   66  A    between atoms: _171  and  _172
REMARK   67  A    between atoms: _182  and  _184
REMARK   68  A    between atoms: _184  and  _185
REMARK   69  A    between atoms: _184  and  _187
REMARK   70  A    between atoms: _187  and  _188
REMARK   71  A    between atoms: _191  and  _193
REMARK   72  A    between atoms: _193  and  _194
REMARK   73  A    between atoms: _193  and  _196
REMARK   74  A    between atoms: _196  and  _197
REMARK   75  A    between atoms: _202  and  _203
REMARK   76  A    between atoms: _205  and  _207
REMARK   77  A    between atoms: _207  and  _208
REMARK   78  A    between atoms: _207  and  _210
REMARK   79  A    between atoms: _210  and  _211
REMARK   80  A    between atoms: _211  and  _212
REMARK   81  A    between atoms: _212  and  _213
REMARK   82  A    between atoms: _222  and  _224
REMARK   83  A    between atoms: _224  and  _225
REMARK   84  A    between atoms: _224  and  _227
REMARK   85  A    between atoms: _227  and  _228
REMARK   86  A    between atoms: _231  and  _233
REMARK   87  A    between atoms: _233  and  _234
REMARK   88  A    between atoms: _233  and  _236
REMARK   89  A    between atoms: _236  and  _237
REMARK   90  A    between atoms: _237  and  _238
REMARK   91  A    between atoms: _238  and  _239
REMARK   92  A    between atoms: _239  and  _240
REMARK   93  A    between atoms: _244  and  _246
REMARK   94  A    between atoms: _246  and  _247
REMARK   95  A    between atoms: _246  and  _249
REMARK   96  A    between atoms: _249  and  _250
REMARK   97  A    between atoms: _250  and  _251
REMARK   98  A    between atoms: _256  and  _258
REMARK   99  A    between atoms: _258  and  _259
REMARK  100  A    between atoms: _258  and  _261
REMARK  101  A    between atoms: _261  and  _262
REMARK  102  A    between atoms: _262  and  _263
REMARK  103  A    between atoms: _263  and  _264
REMARK  104  A    between atoms: _273  and  _275
REMARK  105  A    between atoms: _275  and  _276
REMARK  106  A    between atoms: _275  and  _278
REMARK  107  A    between atoms: _278  and  _279
REMARK  108  A    between atoms: _282  and  _284
REMARK  109  A    between atoms: _284  and  _285
REMARK  110  A    between atoms: _284  and  _287
REMARK  111  A    between atoms: _287  and  _288
REMARK  112  A    between atoms: _288  and  _289
REMARK  113  A    between atoms: _291  and  _293
REMARK  114  A    between atoms: _293  and  _294
REMARK  115  A    between atoms: _293  and  _296
REMARK  116  A    between atoms: _296  and  _297
REMARK  117  A    between atoms: _300  and  _302
REMARK  118  A    between atoms: _302  and  _303
REMARK  119  A    between atoms: _302  and  _305
REMARK  120  A    between atoms: _305  and  _306
REMARK  121  A    between atoms: _306  and  _307
REMARK  122  A    between atoms: _312  and  _314
REMARK  123  A    between atoms: _314  and  _315
REMARK  124  A    between atoms: _314  and  _317
REMARK  125  A    between atoms: _317  and  _318
REMARK  126  A    between atoms: _321  and  _323
REMARK  127  A    between atoms: _323  and  _324
REMARK  128  A    between atoms: _323  and  _326
REMARK  129  A    between atoms: _326  and  _327
REMARK  130  A    between atoms: _329  and  _331
REMARK  131  A    between atoms: _331  and  _332
REMARK  132  A    between atoms: _331  and  _334
REMARK  133  A    between atoms: _334  and  _335
REMARK  134  A    between atoms: _338  and  _340
REMARK  135  A    between atoms: _340  and  _341
REMARK  136  A    between atoms: _340  and  _343
REMARK  137  A    between atoms: _346  and  _348
REMARK  138  A    between atoms: _348  and  _349
REMARK  139  A    between atoms: _348  and  _351
REMARK  140  A    between atoms: _351  and  _352
REMARK  141  A    between atoms: _357  and  _359
REMARK  142  A    between atoms: _370  and  _373
REMARK  143  A    between atoms: _373  and  _374
REMARK  144  A    between atoms: _374  and  _375
REMARK  145  A    between atoms: _380  and  _383
REMARK  146  A    between atoms: _383  and  _384
REMARK  147  A    between atoms: _384  and  _385
REMARK  148  A    between atoms: _394  and  _395
REMARK  149  A    between atoms: _403  and  _405
REMARK  150  A    between atoms: _405  and  _406
REMARK  151  A    between atoms: _405  and  _408
REMARK  152  A    between atoms: _408  and  _409
REMARK  153  A    between atoms: _412  and  _414
REMARK  154  A    between atoms: _414  and  _415
REMARK  155  A    between atoms: _414  and  _417
REMARK  156  A    between atoms: _417  and  _418
REMARK  157  A    between atoms: _423  and  _424
REMARK  158  A    between atoms: _426  and  _428
REMARK  159  A    between atoms: _428  and  _429
REMARK  160  A    between atoms: _428  and  _431
REMARK  161  A    between atoms: _431  and  _432
REMARK  162  A    between atoms: _437  and  _438
REMARK  163  A    between atoms: _440  and  _442
REMARK  164  A    between atoms: _442  and  _443
REMARK  165  A    between atoms: _442  and  _445
REMARK  166  A    between atoms: _445  and  _446
REMARK  167  A    between atoms: _451  and  _452
REMARK  168  A    between atoms: _454  and  _456
REMARK  169  A    between atoms: _456  and  _457
REMARK  170  A    between atoms: _456  and  _459
REMARK  171  A    between atoms: _459  and  _460
REMARK  172  A    between atoms: _460  and  _461
REMARK  173  A    between atoms: _461  and  _462
REMARK  174  A    between atoms: _471  and  _473
REMARK  175  A    between atoms: _473  and  _474
REMARK  176  A    between atoms: _473  and  _476
REMARK  177  A    between atoms: _476  and  _477
REMARK  178  A    between atoms: _477  and  _478
REMARK  179  A    between atoms: _478  and  _479
REMARK  180  A    between atoms: _488  and  _490
REMARK  181  A    between atoms: _490  and  _491
REMARK  182  A    between atoms: _493  and  _495
REMARK  183  A    between atoms: _495  and  _496
REMARK  184  A    between atoms: _499  and  _501
REMARK  185  A    between atoms: _501  and  _502
REMARK  186  A    between atoms: _501  and  _504
REMARK  187  A    between atoms: _504  and  _505
REMARK  188  A    between atoms: _511  and  _512
REMARK  189  A    between atoms: _517  and  _519
REMARK  190  A    between atoms: _519  and  _520
REMARK  191  A    between atoms: _522  and  _524
REMARK  192  A    between atoms: _524  and  _525
REMARK  193  A    between atoms: _524  and  _527
REMARK  194  A    between atoms: _527  and  _528
REMARK  195  A    between atoms: _534  and  _536
REMARK  196  A    between atoms: _536  and  _537
REMARK  197  A    between atoms: _536  and  _539
REMARK  198  A    between atoms: _539  and  _540
REMARK  199  A    between atoms: _545  and  _547
REMARK  200  A    between atoms: _547  and  _548
REMARK  201  A    between atoms: _547  and  _550
REMARK  202  A    between atoms: _550  and  _551
REMARK  203  A    between atoms: _551  and  _552
REMARK  204  A    between atoms: _552  and  _553
REMARK  205  A    between atoms: _553  and  ZN_801
REMARK  206  A    between atoms: _555  and  _557
REMARK  207  A    between atoms: _557  and  _558
REMARK  208  A    between atoms: _561  and  _563
REMARK  209  A    between atoms: _563  and  _564
REMARK  210  A    between atoms: _566  and  _568
REMARK  211  A    between atoms: _568  and  _569
REMARK  212  A    between atoms: _568  and  _571
REMARK  213  A    between atoms: _571  and  _572
REMARK  214  A    between atoms: _575  and  _577
REMARK  215  A    between atoms: _577  and  _578
REMARK  216  A    between atoms: _581  and  _583
REMARK  217  A    between atoms: _583  and  _584
REMARK  218  A    between atoms: _583  and  _586
REMARK  219  A    between atoms: _586  and  _587
REMARK  220  A    between atoms: _587  and  _588
REMARK  221  A    between atoms: _591  and  _593
REMARK  222  A    between atoms: _593  and  _594
REMARK  223  A    between atoms: _593  and  _596
REMARK  224  A    between atoms: _596  and  _597
REMARK  225  A    between atoms: _597  and  _598
REMARK  226  A    between atoms: _598  and  _599
REMARK  227  A    between atoms: _599  and  _600
REMARK  228  A    between atoms: _604  and  _606
REMARK  229  A    between atoms: _606  and  _607
REMARK  230  A    between atoms: _606  and  _609
REMARK  231  A    between atoms: _609  and  _610
REMARK  232  A    between atoms: _616  and  _618
REMARK  233  A    between atoms: _618  and  _619
REMARK  234  A    between atoms: _618  and  _621
REMARK  235  A    between atoms: _621  and  _622
REMARK  236  A    between atoms: _628  and  _630
REMARK  237  A    between atoms: _630  and  _631
REMARK  238  A    between atoms: _633  and  _635
REMARK  239  A    between atoms: _635  and  _636
REMARK  240  A    between atoms: _635  and  _638
REMARK  241  A    between atoms: _641  and  _643
REMARK  242  A    between atoms: _643  and  _644
REMARK  243  A    between atoms: _643  and  _646
REMARK  244  A    between atoms: _646  and  _647
REMARK  245  A    between atoms: _647  and  _648
REMARK  246  A    between atoms: _648  and  _649
REMARK  247  A    between atoms: _649  and  _650
REMARK  248  A    between atoms: _654  and  _656
REMARK  249  A    between atoms: _656  and  _657
REMARK  250  A    between atoms: _656  and  _659
REMARK  251  A    between atoms: _659  and  _660
REMARK  252  A    between atoms: _666  and  _668
REMARK  253  A    between atoms: _668  and  _669
REMARK  254  A    between atoms: _668  and  _671
REMARK  255  A    between atoms: _671  and  _672
REMARK  256  A    between atoms: _677  and  _679
REMARK  257  A    between atoms: _679  and  _680
REMARK  258  A    between atoms: _679  and  _682
REMARK  259  A    between atoms: _682  and  _683
REMARK  260  A    between atoms: _688  and  _690
REMARK  261  A    between atoms: _690  and  _691
REMARK  262  A    between atoms: _690  and  _693
REMARK  263  A    between atoms: _696  and  _698
REMARK  264  A    between atoms: _698  and  _699
REMARK  265  A    between atoms: _698  and  _701
REMARK  266  A    between atoms: _701  and  _702
REMARK  267  A    between atoms: _706  and  _707
REMARK  268  A    between atoms: _712  and  _714
REMARK  269  A    between atoms: _714  and  _715
REMARK  270  A    between atoms: _714  and  _717
REMARK  271  A    between atoms: _717  and  _718
REMARK  272  A    between atoms: _723  and  _724
REMARK  273  A    between atoms: _726  and  _728
REMARK  274  A    between atoms: _728  and  _729
REMARK  275  A    between atoms: _728  and  _731
REMARK  276  A    between atoms: _731  and  _732
REMARK  277  A    between atoms: _732  and  _733
REMARK  278  A    between atoms: _733  and  _734
REMARK  279  A    between atoms: _743  and  _745
REMARK  280  A    between atoms: _745  and  _746
REMARK  281  A    between atoms: _745  and  _748
REMARK  282  A    between atoms: _748  and  _749
REMARK  283  A    between atoms: _754  and  _755
REMARK  284  A    between atoms: _757  and  _759
REMARK  285  A    between atoms: _759  and  _760
REMARK  286  A    between atoms: _759  and  _762
REMARK  287  A    between atoms: _762  and  _763
REMARK  288  A    between atoms: _769  and  _771
REMARK  289  A    between atoms: _771  and  _772
REMARK  290  A    between atoms: _771  and  _774
REMARK  291  A    between atoms: _774  and  _775
REMARK  292  A    between atoms: _777  and  _779
REMARK  293  A    between atoms: _779  and  _780
REMARK  294  A    between atoms: _779  and  _782
REMARK  295  A    between atoms: _782  and  _783
REMARK  296  A    between atoms: _789  and  _791
REMARK  297  A    between atoms: _791  and  _792
REMARK  298  A    between atoms: _791  and  _794
REMARK  299  A    between atoms: _794  and  _795
REMARK  300  A    between atoms: _795  and  _796
REMARK                            x       y       z     vdW  Elec       q    Type
REMARK                         _______ _______ _______ _____ _____    ______ ____
ROOT
ATOM      1  O   HOH     1      11.066 -21.977 -19.748  0.00  0.00    +0.000 OA
ENDROOT
TORSDOF 0
REMARK  Name = ../refined-set-2016/2xyd/2xyd_pocket.pdb
REMARK  300 active torsions:
REMARK  status: ('A' for Active; 'I' for Inactive)
REMARK    1  A    between atoms: _1  and  _3
REMARK    2  A    between atoms: _3  and  _4
REMARK    3  A    between atoms: _3  and  _6
REMARK    4  A    between atoms: _6  and  _7
REMARK    5  A    between atoms: _10  and  _12
REMARK    6  A    between atoms: _12  and  _13
REMARK    7  A    between atoms: _12  and  _15
REMARK    8  A    between atoms: _15  and  _16
REMARK    9  A    between atoms: _21  and  _22
REMARK   10  A    between atoms: _24  and  _26
REMARK   11  A    between atoms: _26  and  _27
REMARK   12  A    between atoms: _26  and  _29
REMARK   13  A    between atoms: _29  and  _30
REMARK   14  A    between atoms: _35  and  _36
REMARK   15  A    between atoms: _38  and  _40
REMARK   16  A    between atoms: _40  and  _41
REMARK   17  A    between atoms: _40  and  _43
REMARK   18  A    between atoms: _43  and  _44
REMARK   19  A    between atoms: _47  and  _49
REMARK   20  A    between atoms: _49  and  _50
REMARK   21  A    between atoms: _49  and  _52
REMARK   22  A    between atoms: _52  and  _53
REMARK   23  A    between atoms: _63  and  _65
REMARK   24  A    between atoms: _65  and  _66
REMARK   25  A    between atoms: _65  and  _68
REMARK   26  A    between atoms: _68  and  _69
REMARK   27  A    between atoms: _69  and  _70
REMARK   28  A    between atoms: _75  and  _77
REMARK   29  A    between atoms: _77  and  _78
REMARK   30  A    between atoms: _77  and  _80
REMARK   31  A    between atoms: _80  and  _81
REMARK   32  A    between atoms: _83  and  _85
REMARK   33  A    between atoms: _85  and  _86
REMARK   34  A    between atoms: _85  and  _88
REMARK   35  A    between atoms: _88  and  _89
REMARK   36  A    between atoms: _99  and  _101
REMARK   37  A    between atoms: _101  and  _102
REMARK   38  A    between atoms: _101  and  _104
REMARK   39  A    between atoms: _104  and  _105
REMARK   40  A    between atoms: _105  and  _106
REMARK   41  A    between atoms: _109  and  _111
REMARK   42  A    between atoms: _111  and  _112
REMARK   43  A    between atoms: _111  and  _114
REMARK   44  A    between atoms: _114  and  _115
REMARK   45  A    between atoms: _120  and  _122
REMARK   46  A    between atoms: _122  and  _123
REMARK   47  A    between atoms: _122  and  _125
REMARK   48  A    between atoms: _128  and  _130
REMARK   49  A    between atoms: _130  and  _131
REMARK   50  A    between atoms: _130  and  _133
REMARK   51  A    between atoms: _135  and  _137
REMARK   52  A    between atoms: _137  and  _138
REMARK   53  A    between atoms: _137  and  _140
REMARK   54  A    between atoms: _140  and  _141
REMARK   55  A    between atoms: _146  and  _148
REMARK   56  A    between atoms: _148  and  _149
REMARK   57  A    between atoms: _152  and  _154
REMARK   58  A    between atoms: _154  and  _155
REMARK   59  A    between atoms: _154  and  _157
REMARK   60  A    between atoms: _157  and  _158
REMARK   61  A    between atoms: _160  and  _162
REMARK   62  A    between atoms: _162  and  _163
REMARK   63  A    between atoms: _166  and  _168
REMARK   64  A    between atoms: _168  and  _169
REMARK   65  A    between atoms: _168  and  _171
REMARK   66  A    between atoms: _171  and  _172
REMARK   67  A    between atoms: _182  and  _184
REMARK   68  A    between atoms: _184  and  _185
REMARK   69  A    between atoms: _184  and  _187
REMARK   70  A    between atoms: _187  and  _188
REMARK   71  A    between atoms: _191  and  _193
REMARK   72  A    between atoms: _193  and  _194
REMARK   73  A    between atoms: _193  and  _196
REMARK   74  A    between atoms: _196  and  _197
REMARK   75  A    between atoms: _202  and  _203
REMARK   76  A    between atoms: _205  and  _207
REMARK   77  A    between atoms: _207  and  _208
REMARK   78  A    between atoms: _207  and  _210
REMARK   79  A    between atoms: _210  and  _211
REMARK   80  A    between atoms: _211  and  _212
REMARK   81  A    between atoms: _212  and  _213
REMARK   82  A    between atoms: _222  and  _224
REMARK   83  A    between atoms: _224  and  _225
REMARK   84  A    between atoms: _224  and  _227
REMARK   85  A    between atoms: _227  and  _228
REMARK   86  A    between atoms: _231  and  _233
REMARK   87  A    between atoms: _233  and  _234
REMARK   88  A    between atoms: _233  and  _236
REMARK   89  A    between atoms: _236  and  _237
REMARK   90  A    between atoms: _237  and  _238
REMARK   91  A    between atoms: _238  and  _239
REMARK   92  A    between atoms: _239  and  _240
REMARK   93  A    between atoms: _244  and  _246
REMARK   94  A    between atoms: _246  and  _247
REMARK   95  A    between atoms: _246  and  _249
REMARK   96  A    between atoms: _249  and  _250
REMARK   97  A    between atoms: _250  and  _251
REMARK   98  A    between atoms: _256  and  _258
REMARK   99  A    between atoms: _258  and  _259
REMARK  100  A    between atoms: _258  and  _261
REMARK  101  A    between atoms: _261  and  _262
REMARK  102  A    between atoms: _262  and  _263
REMARK  103  A    between atoms: _263  and  _264
REMARK  104  A    between atoms: _273  and  _275
REMARK  105  A    between atoms: _275  and  _276
REMARK  106  A    between atoms: _275  and  _278
REMARK  107  A    between atoms: _278  and  _279
REMARK  108  A    between atoms: _282  and  _284
REMARK  109  A    between atoms: _284  and  _285
REMARK  110  A    between atoms: _284  and  _287
REMARK  111  A    between atoms: _287  and  _288
REMARK  112  A    between atoms: _288  and  _289
REMARK  113  A    between atoms: _291  and  _293
REMARK  114  A    between atoms: _293  and  _294
REMARK  115  A    between atoms: _293  and  _296
REMARK  116  A    between atoms: _296  and  _297
REMARK  117  A    between atoms: _300  and  _302
REMARK  118  A    between atoms: _302  and  _303
REMARK  119  A    between atoms: _302  and  _305
REMARK  120  A    between atoms: _305  and  _306
REMARK  121  A    between atoms: _306  and  _307
REMARK  122  A    between atoms: _312  and  _314
REMARK  123  A    between atoms: _314  and  _315
REMARK  124  A    between atoms: _314  and  _317
REMARK  125  A    between atoms: _317  and  _318
REMARK  126  A    between atoms: _321  and  _323
REMARK  127  A    between atoms: _323  and  _324
REMARK  128  A    between atoms: _323  and  _326
REMARK  129  A    between atoms: _326  and  _327
REMARK  130  A    between atoms: _329  and  _331
REMARK  131  A    between atoms: _331  and  _332
REMARK  132  A    between atoms: _331  and  _334
REMARK  133  A    between atoms: _334  and  _335
REMARK  134  A    between atoms: _338  and  _340
REMARK  135  A    between atoms: _340  and  _341
REMARK  136  A    between atoms: _340  and  _343
REMARK  137  A    between atoms: _346  and  _348
REMARK  138  A    between atoms: _348  and  _349
REMARK  139  A    between atoms: _348  and  _351
REMARK  140  A    between atoms: _351  and  _352
REMARK  141  A    between atoms: _357  and  _359
REMARK  142  A    between atoms: _370  and  _373
REMARK  143  A    between atoms: _373  and  _374
REMARK  144  A    between atoms: _374  and  _375
REMARK  145  A    between atoms: _380  and  _383
REMARK  146  A    between atoms: _383  and  _384
REMARK  147  A    between atoms: _384  and  _385
REMARK  148  A    between atoms: _394  and  _395
REMARK  149  A    between atoms: _403  and  _405
REMARK  150  A    between atoms: _405  and  _406
REMARK  151  A    between atoms: _405  and  _408
REMARK  152  A    between atoms: _408  and  _409
REMARK  153  A    between atoms: _412  and  _414
REMARK  154  A    between atoms: _414  and  _415
REMARK  155  A    between atoms: _414  and  _417
REMARK  156  A    between atoms: _417  and  _418
REMARK  157  A    between atoms: _423  and  _424
REMARK  158  A    between atoms: _426  and  _428
REMARK  159  A    between atoms: _428  and  _429
REMARK  160  A    between atoms: _428  and  _431
REMARK  161  A    between atoms: _431  and  _432
REMARK  162  A    between atoms: _437  and  _438
REMARK  163  A    between atoms: _440  and  _442
REMARK  164  A    between atoms: _442  and  _443
REMARK  165  A    between atoms: _442  and  _445
REMARK  166  A    between atoms: _445  and  _446
REMARK  167  A    between atoms: _451  and  _452
REMARK  168  A    between atoms: _454  and  _456
REMARK  169  A    between atoms: _456  and  _457
REMARK  170  A    between atoms: _456  and  _459
REMARK  171  A    between atoms: _459  and  _460
REMARK  172  A    between atoms: _460  and  _461
REMARK  173  A    between atoms: _461  and  _462
REMARK  174  A    between atoms: _471  and  _473
REMARK  175  A    between atoms: _473  and  _474
REMARK  176  A    between atoms: _473  and  _476
REMARK  177  A    between atoms: _476  and  _477
REMARK  178  A    between atoms: _477  and  _478
REMARK  179  A    between atoms: _478  and  _479
REMARK  180  A    between atoms: _488  and  _490
REMARK  181  A    between atoms: _490  and  _491
REMARK  182  A    between atoms: _493  and  _495
REMARK  183  A    between atoms: _495  and  _496
REMARK  184  A    between atoms: _499  and  _501
REMARK  185  A    between atoms: _501  and  _502
REMARK  186  A    between atoms: _501  and  _504
REMARK  187  A    between atoms: _504  and  _505
REMARK  188  A    between atoms: _511  and  _512
REMARK  189  A    between atoms: _517  and  _519
REMARK  190  A    between atoms: _519  and  _520
REMARK  191  A    between atoms: _522  and  _524
REMARK  192  A    between atoms: _524  and  _525
REMARK  193  A    between atoms: _524  and  _527
REMARK  194  A    between atoms: _527  and  _528
REMARK  195  A    between atoms: _534  and  _536
REMARK  196  A    between atoms: _536  and  _537
REMARK  197  A    between atoms: _536  and  _539
REMARK  198  A    between atoms: _539  and  _540
REMARK  199  A    between atoms: _545  and  _547
REMARK  200  A    between atoms: _547  and  _548
REMARK  201  A    between atoms: _547  and  _550
REMARK  202  A    between atoms: _550  and  _551
REMARK  203  A    between atoms: _551  and  _552
REMARK  204  A    between atoms: _552  and  _553
REMARK  205  A    between atoms: _553  and  ZN_801
REMARK  206  A    between atoms: _555  and  _557
REMARK  207  A    between atoms: _557  and  _558
REMARK  208  A    between atoms: _561  and  _563
REMARK  209  A    between atoms: _563  and  _564
REMARK  210  A    between atoms: _566  and  _568
REMARK  211  A    between atoms: _568  and  _569
REMARK  212  A    between atoms: _568  and  _571
REMARK  213  A    between atoms: _571  and  _572
REMARK  214  A    between atoms: _575  and  _577
REMARK  215  A    between atoms: _577  and  _578
REMARK  216  A    between atoms: _581  and  _583
REMARK  217  A    between atoms: _583  and  _584
REMARK  218  A    between atoms: _583  and  _586
REMARK  219  A    between atoms: _586  and  _587
REMARK  220  A    between atoms: _587  and  _588
REMARK  221  A    between atoms: _591  and  _593
REMARK  222  A    between atoms: _593  and  _594
REMARK  223  A    between atoms: _593  and  _596
REMARK  224  A    between atoms: _596  and  _597
REMARK  225  A    between atoms: _597  and  _598
REMARK  226  A    between atoms: _598  and  _599
REMARK  227  A    between atoms: _599  and  _600
REMARK  228  A    between atoms: _604  and  _606
REMARK  229  A    between atoms: _606  and  _607
REMARK  230  A    between atoms: _606  and  _609
REMARK  231  A    between atoms: _609  and  _610
REMARK  232  A    between atoms: _616  and  _618
REMARK  233  A    between atoms: _618  and  _619
REMARK  234  A    between atoms: _618  and  _621
REMARK  235  A    between atoms: _621  and  _622
REMARK  236  A    between atoms: _628  and  _630
REMARK  237  A    between atoms: _630  and  _631
REMARK  238  A    between atoms: _633  and  _635
REMARK  239  A    between atoms: _635  and  _636
REMARK  240  A    between atoms: _635  and  _638
REMARK  241  A    between atoms: _641  and  _643
REMARK  242  A    between atoms: _643  and  _644
REMARK  243  A    between atoms: _643  and  _646
REMARK  244  A    between atoms: _646  and  _647
REMARK  245  A    between atoms: _647  and  _648
REMARK  246  A    between atoms: _648  and  _649
REMARK  247  A    between atoms: _649  and  _650
REMARK  248  A    between atoms: _654  and  _656
REMARK  249  A    between atoms: _656  and  _657
REMARK  250  A    between atoms: _656  and  _659
REMARK  251  A    between atoms: _659  and  _660
REMARK  252  A    between atoms: _666  and  _668
REMARK  253  A    between atoms: _668  and  _669
REMARK  254  A    between atoms: _668  and  _671
REMARK  255  A    between atoms: _671  and  _672
REMARK  256  A    between atoms: _677  and  _679
REMARK  257  A    between atoms: _679  and  _680
REMARK  258  A    between atoms: _679  and  _682
REMARK  259  A    between atoms: _682  and  _683
REMARK  260  A    between atoms: _688  and  _690
REMARK  261  A    between atoms: _690  and  _691
REMARK  262  A    between atoms: _690  and  _693
REMARK  263  A    between atoms: _696  and  _698
REMARK  264  A    between atoms: _698  and  _699
REMARK  265  A    between atoms: _698  and  _701
REMARK  266  A    between atoms: _701  and  _702
REMARK  267  A    between atoms: _706  and  _707
REMARK  268  A    between atoms: _712  and  _714
REMARK  269  A    between atoms: _714  and  _715
REMARK  270  A    between atoms: _714  and  _717
REMARK  271  A    between atoms: _717  and  _718
REMARK  272  A    between atoms: _723  and  _724
REMARK  273  A    between atoms: _726  and  _728
REMARK  274  A    between atoms: _728  and  _729
REMARK  275  A    between atoms: _728  and  _731
REMARK  276  A    between atoms: _731  and  _732
REMARK  277  A    between atoms: _732  and  _733
REMARK  278  A    between atoms: _733  and  _734
REMARK  279  A    between atoms: _743  and  _745
REMARK  280  A    between atoms: _745  and  _746
REMARK  281  A    between atoms: _745  and  _748
REMARK  282  A    between atoms: _748  and  _749
REMARK  283  A    between atoms: _754  and  _755
REMARK  284  A    between atoms: _757  and  _759
REMARK  285  A    between atoms: _759  and  _760
REMARK  286  A    between atoms: _759  and  _762
REMARK  287  A    between atoms: _762  and  _763
REMARK  288  A    between atoms: _769  and  _771
REMARK  289  A    between atoms: _771  and  _772
REMARK  290  A    between atoms: _771  and  _774
REMARK  291  A    between atoms: _774  and  _775
REMARK  292  A    between atoms: _777  and  _779
REMARK  293  A    between atoms: _779  and  _780
REMARK  294  A    between atoms: _779  and  _782
REMARK  295  A    between atoms: _782  and  _783
REMARK  296  A    between atoms: _789  and  _791
REMARK  297  A    between atoms: _791  and  _792
REMARK  298  A    between atoms: _791  and  _794
REMARK  299  A    between atoms: _794  and  _795
REMARK  300  A    between atoms: _795  and  _796
REMARK                            x       y       z     vdW  Elec       q    Type
REMARK                         _______ _______ _______ _____ _____    ______ ____
ROOT
ATOM      1  O   HOH     1       2.809  -7.734 -23.280  0.00  0.00    +0.000 OA
ENDROOT
TORSDOF 0
REMARK  Name = ../refined-set-2016/2xyd/2xyd_pocket.pdb
REMARK  300 active torsions:
REMARK  status: ('A' for Active; 'I' for Inactive)
REMARK    1  A    between atoms: _1  and  _3
REMARK    2  A    between atoms: _3  and  _4
REMARK    3  A    between atoms: _3  and  _6
REMARK    4  A    between atoms: _6  and  _7
REMARK    5  A    between atoms: _10  and  _12
REMARK    6  A    between atoms: _12  and  _13
REMARK    7  A    between atoms: _12  and  _15
REMARK    8  A    between atoms: _15  and  _16
REMARK    9  A    between atoms: _21  and  _22
REMARK   10  A    between atoms: _24  and  _26
REMARK   11  A    between atoms: _26  and  _27
REMARK   12  A    between atoms: _26  and  _29
REMARK   13  A    between atoms: _29  and  _30
REMARK   14  A    between atoms: _35  and  _36
REMARK   15  A    between atoms: _38  and  _40
REMARK   16  A    between atoms: _40  and  _41
REMARK   17  A    between atoms: _40  and  _43
REMARK   18  A    between atoms: _43  and  _44
REMARK   19  A    between atoms: _47  and  _49
REMARK   20  A    between atoms: _49  and  _50
REMARK   21  A    between atoms: _49  and  _52
REMARK   22  A    between atoms: _52  and  _53
REMARK   23  A    between atoms: _63  and  _65
REMARK   24  A    between atoms: _65  and  _66
REMARK   25  A    between atoms: _65  and  _68
REMARK   26  A    between atoms: _68  and  _69
REMARK   27  A    between atoms: _69  and  _70
REMARK   28  A    between atoms: _75  and  _77
REMARK   29  A    between atoms: _77  and  _78
REMARK   30  A    between atoms: _77  and  _80
REMARK   31  A    between atoms: _80  and  _81
REMARK   32  A    between atoms: _83  and  _85
REMARK   33  A    between atoms: _85  and  _86
REMARK   34  A    between atoms: _85  and  _88
REMARK   35  A    between atoms: _88  and  _89
REMARK   36  A    between atoms: _99  and  _101
REMARK   37  A    between atoms: _101  and  _102
REMARK   38  A    between atoms: _101  and  _104
REMARK   39  A    between atoms: _104  and  _105
REMARK   40  A    between atoms: _105  and  _106
REMARK   41  A    between atoms: _109  and  _111
REMARK   42  A    between atoms: _111  and  _112
REMARK   43  A    between atoms: _111  and  _114
REMARK   44  A    between atoms: _114  and  _115
REMARK   45  A    between atoms: _120  and  _122
REMARK   46  A    between atoms: _122  and  _123
REMARK   47  A    between atoms: _122  and  _125
REMARK   48  A    between atoms: _128  and  _130
REMARK   49  A    between atoms: _130  and  _131
REMARK   50  A    between atoms: _130  and  _133
REMARK   51  A    between atoms: _135  and  _137
REMARK   52  A    between atoms: _137  and  _138
REMARK   53  A    between atoms: _137  and  _140
REMARK   54  A    between atoms: _140  and  _141
REMARK   55  A    between atoms: _146  and  _148
REMARK   56  A    between atoms: _148  and  _149
REMARK   57  A    between atoms: _152  and  _154
REMARK   58  A    between atoms: _154  and  _155
REMARK   59  A    between atoms: _154  and  _157
REMARK   60  A    between atoms: _157  and  _158
REMARK   61  A    between atoms: _160  and  _162
REMARK   62  A    between atoms: _162  and  _163
REMARK   63  A    between atoms: _166  and  _168
REMARK   64  A    between atoms: _168  and  _169
REMARK   65  A    between atoms: _168  and  _171
REMARK   66  A    between atoms: _171  and  _172
REMARK   67  A    between atoms: _182  and  _184
REMARK   68  A    between atoms: _184  and  _185
REMARK   69  A    between atoms: _184  and  _187
REMARK   70  A    between atoms: _187  and  _188
REMARK   71  A    between atoms: _191  and  _193
REMARK   72  A    between atoms: _193  and  _194
REMARK   73  A    between atoms: _193  and  _196
REMARK   74  A    between atoms: _196  and  _197
REMARK   75  A    between atoms: _202  and  _203
REMARK   76  A    between atoms: _205  and  _207
REMARK   77  A    between atoms: _207  and  _208
REMARK   78  A    between atoms: _207  and  _210
REMARK   79  A    between atoms: _210  and  _211
REMARK   80  A    between atoms: _211  and  _212
REMARK   81  A    between atoms: _212  and  _213
REMARK   82  A    between atoms: _222  and  _224
REMARK   83  A    between atoms: _224  and  _225
REMARK   84  A    between atoms: _224  and  _227
REMARK   85  A    between atoms: _227  and  _228
REMARK   86  A    between atoms: _231  and  _233
REMARK   87  A    between atoms: _233  and  _234
REMARK   88  A    between atoms: _233  and  _236
REMARK   89  A    between atoms: _236  and  _237
REMARK   90  A    between atoms: _237  and  _238
REMARK   91  A    between atoms: _238  and  _239
REMARK   92  A    between atoms: _239  and  _240
REMARK   93  A    between atoms: _244  and  _246
REMARK   94  A    between atoms: _246  and  _247
REMARK   95  A    between atoms: _246  and  _249
REMARK   96  A    between atoms: _249  and  _250
REMARK   97  A    between atoms: _250  and  _251
REMARK   98  A    between atoms: _256  and  _258
REMARK   99  A    between atoms: _258  and  _259
REMARK  100  A    between atoms: _258  and  _261
REMARK  101  A    between atoms: _261  and  _262
REMARK  102  A    between atoms: _262  and  _263
REMARK  103  A    between atoms: _263  and  _264
REMARK  104  A    between atoms: _273  and  _275
REMARK  105  A    between atoms: _275  and  _276
REMARK  106  A    between atoms: _275  and  _278
REMARK  107  A    between atoms: _278  and  _279
REMARK  108  A    between atoms: _282  and  _284
REMARK  109  A    between atoms: _284  and  _285
REMARK  110  A    between atoms: _284  and  _287
REMARK  111  A    between atoms: _287  and  _288
REMARK  112  A    between atoms: _288  and  _289
REMARK  113  A    between atoms: _291  and  _293
REMARK  114  A    between atoms: _293  and  _294
REMARK  115  A    between atoms: _293  and  _296
REMARK  116  A    between atoms: _296  and  _297
REMARK  117  A    between atoms: _300  and  _302
REMARK  118  A    between atoms: _302  and  _303
REMARK  119  A    between atoms: _302  and  _305
REMARK  120  A    between atoms: _305  and  _306
REMARK  121  A    between atoms: _306  and  _307
REMARK  122  A    between atoms: _312  and  _314
REMARK  123  A    between atoms: _314  and  _315
REMARK  124  A    between atoms: _314  and  _317
REMARK  125  A    between atoms: _317  and  _318
REMARK  126  A    between atoms: _321  and  _323
REMARK  127  A    between atoms: _323  and  _324
REMARK  128  A    between atoms: _323  and  _326
REMARK  129  A    between atoms: _326  and  _327
REMARK  130  A    between atoms: _329  and  _331
REMARK  131  A    between atoms: _331  and  _332
REMARK  132  A    between atoms: _331  and  _334
REMARK  133  A    between atoms: _334  and  _335
REMARK  134  A    between atoms: _338  and  _340
REMARK  135  A    between atoms: _340  and  _341
REMARK  136  A    between atoms: _340  and  _343
REMARK  137  A    between atoms: _346  and  _348
REMARK  138  A    between atoms: _348  and  _349
REMARK  139  A    between atoms: _348  and  _351
REMARK  140  A    between atoms: _351  and  _352
REMARK  141  A    between atoms: _357  and  _359
REMARK  142  A    between atoms: _370  and  _373
REMARK  143  A    between atoms: _373  and  _374
REMARK  144  A    between atoms: _374  and  _375
REMARK  145  A    between atoms: _380  and  _383
REMARK  146  A    between atoms: _383  and  _384
REMARK  147  A    between atoms: _384  and  _385
REMARK  148  A    between atoms: _394  and  _395
REMARK  149  A    between atoms: _403  and  _405
REMARK  150  A    between atoms: _405  and  _406
REMARK  151  A    between atoms: _405  and  _408
REMARK  152  A    between atoms: _408  and  _409
REMARK  153  A    between atoms: _412  and  _414
REMARK  154  A    between atoms: _414  and  _415
REMARK  155  A    between atoms: _414  and  _417
REMARK  156  A    between atoms: _417  and  _418
REMARK  157  A    between atoms: _423  and  _424
REMARK  158  A    between atoms: _426  and  _428
REMARK  159  A    between atoms: _428  and  _429
REMARK  160  A    between atoms: _428  and  _431
REMARK  161  A    between atoms: _431  and  _432
REMARK  162  A    between atoms: _437  and  _438
REMARK  163  A    between atoms: _440  and  _442
REMARK  164  A    between atoms: _442  and  _443
REMARK  165  A    between atoms: _442  and  _445
REMARK  166  A    between atoms: _445  and  _446
REMARK  167  A    between atoms: _451  and  _452
REMARK  168  A    between atoms: _454  and  _456
REMARK  169  A    between atoms: _456  and  _457
REMARK  170  A    between atoms: _456  and  _459
REMARK  171  A    between atoms: _459  and  _460
REMARK  172  A    between atoms: _460  and  _461
REMARK  173  A    between atoms: _461  and  _462
REMARK  174  A    between atoms: _471  and  _473
REMARK  175  A    between atoms: _473  and  _474
REMARK  176  A    between atoms: _473  and  _476
REMARK  177  A    between atoms: _476  and  _477
REMARK  178  A    between atoms: _477  and  _478
REMARK  179  A    between atoms: _478  and  _479
REMARK  180  A    between atoms: _488  and  _490
REMARK  181  A    between atoms: _490  and  _491
REMARK  182  A    between atoms: _493  and  _495
REMARK  183  A    between atoms: _495  and  _496
REMARK  184  A    between atoms: _499  and  _501
REMARK  185  A    between atoms: _501  and  _502
REMARK  186  A    between atoms: _501  and  _504
REMARK  187  A    between atoms: _504  and  _505
REMARK  188  A    between atoms: _511  and  _512
REMARK  189  A    between atoms: _517  and  _519
REMARK  190  A    between atoms: _519  and  _520
REMARK  191  A    between atoms: _522  and  _524
REMARK  192  A    between atoms: _524  and  _525
REMARK  193  A    between atoms: _524  and  _527
REMARK  194  A    between atoms: _527  and  _528
REMARK  195  A    between atoms: _534  and  _536
REMARK  196  A    between atoms: _536  and  _537
REMARK  197  A    between atoms: _536  and  _539
REMARK  198  A    between atoms: _539  and  _540
REMARK  199  A    between atoms: _545  and  _547
REMARK  200  A    between atoms: _547  and  _548
REMARK  201  A    between atoms: _547  and  _550
REMARK  202  A    between atoms: _550  and  _551
REMARK  203  A    between atoms: _551  and  _552
REMARK  204  A    between atoms: _552  and  _553
REMARK  205  A    between atoms: _553  and  ZN_801
REMARK  206  A    between atoms: _555  and  _557
REMARK  207  A    between atoms: _557  and  _558
REMARK  208  A    between atoms: _561  and  _563
REMARK  209  A    between atoms: _563  and  _564
REMARK  210  A    between atoms: _566  and  _568
REMARK  211  A    between atoms: _568  and  _569
REMARK  212  A    between atoms: _568  and  _571
REMARK  213  A    between atoms: _571  and  _572
REMARK  214  A    between atoms: _575  and  _577
REMARK  215  A    between atoms: _577  and  _578
REMARK  216  A    between atoms: _581  and  _583
REMARK  217  A    between atoms: _583  and  _584
REMARK  218  A    between atoms: _583  and  _586
REMARK  219  A    between atoms: _586  and  _587
REMARK  220  A    between atoms: _587  and  _588
REMARK  221  A    between atoms: _591  and  _593
REMARK  222  A    between atoms: _593  and  _594
REMARK  223  A    between atoms: _593  and  _596
REMARK  224  A    between atoms: _596  and  _597
REMARK  225  A    between atoms: _597  and  _598
REMARK  226  A    between atoms: _598  and  _599
REMARK  227  A    between atoms: _599  and  _600
REMARK  228  A    between atoms: _604  and  _606
REMARK  229  A    between atoms: _606  and  _607
REMARK  230  A    between atoms: _606  and  _609
REMARK  231  A    between atoms: _609  and  _610
REMARK  232  A    between atoms: _616  and  _618
REMARK  233  A    between atoms: _618  and  _619
REMARK  234  A    between atoms: _618  and  _621
REMARK  235  A    between atoms: _621  and  _622
REMARK  236  A    between atoms: _628  and  _630
REMARK  237  A    between atoms: _630  and  _631
REMARK  238  A    between atoms: _633  and  _635
REMARK  239  A    between atoms: _635  and  _636
REMARK  240  A    between atoms: _635  and  _638
REMARK  241  A    between atoms: _641  and  _643
REMARK  242  A    between atoms: _643  and  _644
REMARK  243  A    between atoms: _643  and  _646
REMARK  244  A    between atoms: _646  and  _647
REMARK  245  A    between atoms: _647  and  _648
REMARK  246  A    between atoms: _648  and  _649
REMARK  247  A    between atoms: _649  and  _650
REMARK  248  A    between atoms: _654  and  _656
REMARK  249  A    between atoms: _656  and  _657
REMARK  250  A    between atoms: _656  and  _659
REMARK  251  A    between atoms: _659  and  _660
REMARK  252  A    between atoms: _666  and  _668
REMARK  253  A    between atoms: _668  and  _669
REMARK  254  A    between atoms: _668  and  _671
REMARK  255  A    between atoms: _671  and  _672
REMARK  256  A    between atoms: _677  and  _679
REMARK  257  A    between atoms: _679  and  _680
REMARK  258  A    between atoms: _679  and  _682
REMARK  259  A    between atoms: _682  and  _683
REMARK  260  A    between atoms: _688  and  _690
REMARK  261  A    between atoms: _690  and  _691
REMARK  262  A    between atoms: _690  and  _693
REMARK  263  A    between atoms: _696  and  _698
REMARK  264  A    between atoms: _698  and  _699
REMARK  265  A    between atoms: _698  and  _701
REMARK  266  A    between atoms: _701  and  _702
REMARK  267  A    between atoms: _706  and  _707
REMARK  268  A    between atoms: _712  and  _714
REMARK  269  A    between atoms: _714  and  _715
REMARK  270  A    between atoms: _714  and  _717
REMARK  271  A    between atoms: _717  and  _718
REMARK  272  A    between atoms: _723  and  _724
REMARK  273  A    between atoms: _726  and  _728
REMARK  274  A    between atoms: _728  and  _729
REMARK  275  A    between atoms: _728  and  _731
REMARK  276  A    between atoms: _731  and  _732
REMARK  277  A    between atoms: _732  and  _733
REMARK  278  A    between atoms: _733  and  _734
REMARK  279  A    between atoms: _743  and  _745
REMARK  280  A    between atoms: _745  and  _746
REMARK  281  A    between atoms: _745  and  _748
REMARK  282  A    between atoms: _748  and  _749
REMARK  283  A    between atoms: _754  and  _755
REMARK  284  A    between atoms: _757  and  _759
REMARK  285  A    between atoms: _759  and  _760
REMARK  286  A    between atoms: _759  and  _762
REMARK  287  A    between atoms: _762  and  _763
REMARK  288  A    between atoms: _769  and  _771
REMARK  289  A    between atoms: _771  and  _772
REMARK  290  A    between atoms: _771  and  _774
REMARK  291  A    between atoms: _774  and  _775
REMARK  292  A    between atoms: _777  and  _779
REMARK  293  A    between atoms: _779  and  _780
REMARK  294  A    between atoms: _779  and  _782
REMARK  295  A    between atoms: _782  and  _783
REMARK  296  A    between atoms: _789  and  _791
REMARK  297  A    between atoms: _791  and  _792
REMARK  298  A    between atoms: _791  and  _794
REMARK  299  A    between atoms: _794  and  _795
REMARK  300  A    between atoms: _795  and  _796
REMARK                            x       y       z     vdW  Elec       q    Type
REMARK                         _______ _______ _______ _____ _____    ______ ____
ROOT
ATOM      1  O   HOH     1      -3.657 -14.338 -18.536  0.00  0.00    +0.000 OA
ENDROOT
TORSDOF 0
REMARK  Name = ../refined-set-2016/2xyd/2xyd_pocket.pdb
REMARK  300 active torsions:
REMARK  status: ('A' for Active; 'I' for Inactive)
REMARK    1  A    between atoms: _1  and  _3
REMARK    2  A    between atoms: _3  and  _4
REMARK    3  A    between atoms: _3  and  _6
REMARK    4  A    between atoms: _6  and  _7
REMARK    5  A    between atoms: _10  and  _12
REMARK    6  A    between atoms: _12  and  _13
REMARK    7  A    between atoms: _12  and  _15
REMARK    8  A    between atoms: _15  and  _16
REMARK    9  A    between atoms: _21  and  _22
REMARK   10  A    between atoms: _24  and  _26
REMARK   11  A    between atoms: _26  and  _27
REMARK   12  A    between atoms: _26  and  _29
REMARK   13  A    between atoms: _29  and  _30
REMARK   14  A    between atoms: _35  and  _36
REMARK   15  A    between atoms: _38  and  _40
REMARK   16  A    between atoms: _40  and  _41
REMARK   17  A    between atoms: _40  and  _43
REMARK   18  A    between atoms: _43  and  _44
REMARK   19  A    between atoms: _47  and  _49
REMARK   20  A    between atoms: _49  and  _50
REMARK   21  A    between atoms: _49  and  _52
REMARK   22  A    between atoms: _52  and  _53
REMARK   23  A    between atoms: _63  and  _65
REMARK   24  A    between atoms: _65  and  _66
REMARK   25  A    between atoms: _65  and  _68
REMARK   26  A    between atoms: _68  and  _69
REMARK   27  A    between atoms: _69  and  _70
REMARK   28  A    between atoms: _75  and  _77
REMARK   29  A    between atoms: _77  and  _78
REMARK   30  A    between atoms: _77  and  _80
REMARK   31  A    between atoms: _80  and  _81
REMARK   32  A    between atoms: _83  and  _85
REMARK   33  A    between atoms: _85  and  _86
REMARK   34  A    between atoms: _85  and  _88
REMARK   35  A    between atoms: _88  and  _89
REMARK   36  A    between atoms: _99  and  _101
REMARK   37  A    between atoms: _101  and  _102
REMARK   38  A    between atoms: _101  and  _104
REMARK   39  A    between atoms: _104  and  _105
REMARK   40  A    between atoms: _105  and  _106
REMARK   41  A    between atoms: _109  and  _111
REMARK   42  A    between atoms: _111  and  _112
REMARK   43  A    between atoms: _111  and  _114
REMARK   44  A    between atoms: _114  and  _115
REMARK   45  A    between atoms: _120  and  _122
REMARK   46  A    between atoms: _122  and  _123
REMARK   47  A    between atoms: _122  and  _125
REMARK   48  A    between atoms: _128  and  _130
REMARK   49  A    between atoms: _130  and  _131
REMARK   50  A    between atoms: _130  and  _133
REMARK   51  A    between atoms: _135  and  _137
REMARK   52  A    between atoms: _137  and  _138
REMARK   53  A    between atoms: _137  and  _140
REMARK   54  A    between atoms: _140  and  _141
REMARK   55  A    between atoms: _146  and  _148
REMARK   56  A    between atoms: _148  and  _149
REMARK   57  A    between atoms: _152  and  _154
REMARK   58  A    between atoms: _154  and  _155
REMARK   59  A    between atoms: _154  and  _157
REMARK   60  A    between atoms: _157  and  _158
REMARK   61  A    between atoms: _160  and  _162
REMARK   62  A    between atoms: _162  and  _163
REMARK   63  A    between atoms: _166  and  _168
REMARK   64  A    between atoms: _168  and  _169
REMARK   65  A    between atoms: _168  and  _171
REMARK   66  A    between atoms: _171  and  _172
REMARK   67  A    between atoms: _182  and  _184
REMARK   68  A    between atoms: _184  and  _185
REMARK   69  A    between atoms: _184  and  _187
REMARK   70  A    between atoms: _187  and  _188
REMARK   71  A    between atoms: _191  and  _193
REMARK   72  A    between atoms: _193  and  _194
REMARK   73  A    between atoms: _193  and  _196
REMARK   74  A    between atoms: _196  and  _197
REMARK   75  A    between atoms: _202  and  _203
REMARK   76  A    between atoms: _205  and  _207
REMARK   77  A    between atoms: _207  and  _208
REMARK   78  A    between atoms: _207  and  _210
REMARK   79  A    between atoms: _210  and  _211
REMARK   80  A    between atoms: _211  and  _212
REMARK   81  A    between atoms: _212  and  _213
REMARK   82  A    between atoms: _222  and  _224
REMARK   83  A    between atoms: _224  and  _225
REMARK   84  A    between atoms: _224  and  _227
REMARK   85  A    between atoms: _227  and  _228
REMARK   86  A    between atoms: _231  and  _233
REMARK   87  A    between atoms: _233  and  _234
REMARK   88  A    between atoms: _233  and  _236
REMARK   89  A    between atoms: _236  and  _237
REMARK   90  A    between atoms: _237  and  _238
REMARK   91  A    between atoms: _238  and  _239
REMARK   92  A    between atoms: _239  and  _240
REMARK   93  A    between atoms: _244  and  _246
REMARK   94  A    between atoms: _246  and  _247
REMARK   95  A    between atoms: _246  and  _249
REMARK   96  A    between atoms: _249  and  _250
REMARK   97  A    between atoms: _250  and  _251
REMARK   98  A    between atoms: _256  and  _258
REMARK   99  A    between atoms: _258  and  _259
REMARK  100  A    between atoms: _258  and  _261
REMARK  101  A    between atoms: _261  and  _262
REMARK  102  A    between atoms: _262  and  _263
REMARK  103  A    between atoms: _263  and  _264
REMARK  104  A    between atoms: _273  and  _275
REMARK  105  A    between atoms: _275  and  _276
REMARK  106  A    between atoms: _275  and  _278
REMARK  107  A    between atoms: _278  and  _279
REMARK  108  A    between atoms: _282  and  _284
REMARK  109  A    between atoms: _284  and  _285
REMARK  110  A    between atoms: _284  and  _287
REMARK  111  A    between atoms: _287  and  _288
REMARK  112  A    between atoms: _288  and  _289
REMARK  113  A    between atoms: _291  and  _293
REMARK  114  A    between atoms: _293  and  _294
REMARK  115  A    between atoms: _293  and  _296
REMARK  116  A    between atoms: _296  and  _297
REMARK  117  A    between atoms: _300  and  _302
REMARK  118  A    between atoms: _302  and  _303
REMARK  119  A    between atoms: _302  and  _305
REMARK  120  A    between atoms: _305  and  _306
REMARK  121  A    between atoms: _306  and  _307
REMARK  122  A    between atoms: _312  and  _314
REMARK  123  A    between atoms: _314  and  _315
REMARK  124  A    between atoms: _314  and  _317
REMARK  125  A    between atoms: _317  and  _318
REMARK  126  A    between atoms: _321  and  _323
REMARK  127  A    between atoms: _323  and  _324
REMARK  128  A    between atoms: _323  and  _326
REMARK  129  A    between atoms: _326  and  _327
REMARK  130  A    between atoms: _329  and  _331
REMARK  131  A    between atoms: _331  and  _332
REMARK  132  A    between atoms: _331  and  _334
REMARK  133  A    between atoms: _334  and  _335
REMARK  134  A    between atoms: _338  and  _340
REMARK  135  A    between atoms: _340  and  _341
REMARK  136  A    between atoms: _340  and  _343
REMARK  137  A    between atoms: _346  and  _348
REMARK  138  A    between atoms: _348  and  _349
REMARK  139  A    between atoms: _348  and  _351
REMARK  140  A    between atoms: _351  and  _352
REMARK  141  A    between atoms: _357  and  _359
REMARK  142  A    between atoms: _370  and  _373
REMARK  143  A    between atoms: _373  and  _374
REMARK  144  A    between atoms: _374  and  _375
REMARK  145  A    between atoms: _380  and  _383
REMARK  146  A    between atoms: _383  and  _384
REMARK  147  A    between atoms: _384  and  _385
REMARK  148  A    between atoms: _394  and  _395
REMARK  149  A    between atoms: _403  and  _405
REMARK  150  A    between atoms: _405  and  _406
REMARK  151  A    between atoms: _405  and  _408
REMARK  152  A    between atoms: _408  and  _409
REMARK  153  A    between atoms: _412  and  _414
REMARK  154  A    between atoms: _414  and  _415
REMARK  155  A    between atoms: _414  and  _417
REMARK  156  A    between atoms: _417  and  _418
REMARK  157  A    between atoms: _423  and  _424
REMARK  158  A    between atoms: _426  and  _428
REMARK  159  A    between atoms: _428  and  _429
REMARK  160  A    between atoms: _428  and  _431
REMARK  161  A    between atoms: _431  and  _432
REMARK  162  A    between atoms: _437  and  _438
REMARK  163  A    between atoms: _440  and  _442
REMARK  164  A    between atoms: _442  and  _443
REMARK  165  A    between atoms: _442  and  _445
REMARK  166  A    between atoms: _445  and  _446
REMARK  167  A    between atoms: _451  and  _452
REMARK  168  A    between atoms: _454  and  _456
REMARK  169  A    between atoms: _456  and  _457
REMARK  170  A    between atoms: _456  and  _459
REMARK  171  A    between atoms: _459  and  _460
REMARK  172  A    between atoms: _460  and  _461
REMARK  173  A    between atoms: _461  and  _462
REMARK  174  A    between atoms: _471  and  _473
REMARK  175  A    between atoms: _473  and  _474
REMARK  176  A    between atoms: _473  and  _476
REMARK  177  A    between atoms: _476  and  _477
REMARK  178  A    between atoms: _477  and  _478
REMARK  179  A    between atoms: _478  and  _479
REMARK  180  A    between atoms: _488  and  _490
REMARK  181  A    between atoms: _490  and  _491
REMARK  182  A    between atoms: _493  and  _495
REMARK  183  A    between atoms: _495  and  _496
REMARK  184  A    between atoms: _499  and  _501
REMARK  185  A    between atoms: _501  and  _502
REMARK  186  A    between atoms: _501  and  _504
REMARK  187  A    between atoms: _504  and  _505
REMARK  188  A    between atoms: _511  and  _512
REMARK  189  A    between atoms: _517  and  _519
REMARK  190  A    between atoms: _519  and  _520
REMARK  191  A    between atoms: _522  and  _524
REMARK  192  A    between atoms: _524  and  _525
REMARK  193  A    between atoms: _524  and  _527
REMARK  194  A    between atoms: _527  and  _528
REMARK  195  A    between atoms: _534  and  _536
REMARK  196  A    between atoms: _536  and  _537
REMARK  197  A    between atoms: _536  and  _539
REMARK  198  A    between atoms: _539  and  _540
REMARK  199  A    between atoms: _545  and  _547
REMARK  200  A    between atoms: _547  and  _548
REMARK  201  A    between atoms: _547  and  _550
REMARK  202  A    between atoms: _550  and  _551
REMARK  203  A    between atoms: _551  and  _552
REMARK  204  A    between atoms: _552  and  _553
REMARK  205  A    between atoms: _553  and  ZN_801
REMARK  206  A    between atoms: _555  and  _557
REMARK  207  A    between atoms: _557  and  _558
REMARK  208  A    between atoms: _561  and  _563
REMARK  209  A    between atoms: _563  and  _564
REMARK  210  A    between atoms: _566  and  _568
REMARK  211  A    between atoms: _568  and  _569
REMARK  212  A    between atoms: _568  and  _571
REMARK  213  A    between atoms: _571  and  _572
REMARK  214  A    between atoms: _575  and  _577
REMARK  215  A    between atoms: _577  and  _578
REMARK  216  A    between atoms: _581  and  _583
REMARK  217  A    between atoms: _583  and  _584
REMARK  218  A    between atoms: _583  and  _586
REMARK  219  A    between atoms: _586  and  _587
REMARK  220  A    between atoms: _587  and  _588
REMARK  221  A    between atoms: _591  and  _593
REMARK  222  A    between atoms: _593  and  _594
REMARK  223  A    between atoms: _593  and  _596
REMARK  224  A    between atoms: _596  and  _597
REMARK  225  A    between atoms: _597  and  _598
REMARK  226  A    between atoms: _598  and  _599
REMARK  227  A    between atoms: _599  and  _600
REMARK  228  A    between atoms: _604  and  _606
REMARK  229  A    between atoms: _606  and  _607
REMARK  230  A    between atoms: _606  and  _609
REMARK  231  A    between atoms: _609  and  _610
REMARK  232  A    between atoms: _616  and  _618
REMARK  233  A    between atoms: _618  and  _619
REMARK  234  A    between atoms: _618  and  _621
REMARK  235  A    between atoms: _621  and  _622
REMARK  236  A    between atoms: _628  and  _630
REMARK  237  A    between atoms: _630  and  _631
REMARK  238  A    between atoms: _633  and  _635
REMARK  239  A    between atoms: _635  and  _636
REMARK  240  A    between atoms: _635  and  _638
REMARK  241  A    between atoms: _641  and  _643
REMARK  242  A    between atoms: _643  and  _644
REMARK  243  A    between atoms: _643  and  _646
REMARK  244  A    between atoms: _646  and  _647
REMARK  245  A    between atoms: _647  and  _648
REMARK  246  A    between atoms: _648  and  _649
REMARK  247  A    between atoms: _649  and  _650
REMARK  248  A    between atoms: _654  and  _656
REMARK  249  A    between atoms: _656  and  _657
REMARK  250  A    between atoms: _656  and  _659
REMARK  251  A    between atoms: _659  and  _660
REMARK  252  A    between atoms: _666  and  _668
REMARK  253  A    between atoms: _668  and  _669
REMARK  254  A    between atoms: _668  and  _671
REMARK  255  A    between atoms: _671  and  _672
REMARK  256  A    between atoms: _677  and  _679
REMARK  257  A    between atoms: _679  and  _680
REMARK  258  A    between atoms: _679  and  _682
REMARK  259  A    between atoms: _682  and  _683
REMARK  260  A    between atoms: _688  and  _690
REMARK  261  A    between atoms: _690  and  _691
REMARK  262  A    between atoms: _690  and  _693
REMARK  263  A    between atoms: _696  and  _698
REMARK  264  A    between atoms: _698  and  _699
REMARK  265  A    between atoms: _698  and  _701
REMARK  266  A    between atoms: _701  and  _702
REMARK  267  A    between atoms: _706  and  _707
REMARK  268  A    between atoms: _712  and  _714
REMARK  269  A    between atoms: _714  and  _715
REMARK  270  A    between atoms: _714  and  _717
REMARK  271  A    between atoms: _717  and  _718
REMARK  272  A    between atoms: _723  and  _724
REMARK  273  A    between atoms: _726  and  _728
REMARK  274  A    between atoms: _728  and  _729
REMARK  275  A    between atoms: _728  and  _731
REMARK  276  A    between atoms: _731  and  _732
REMARK  277  A    between atoms: _732  and  _733
REMARK  278  A    between atoms: _733  and  _734
REMARK  279  A    between atoms: _743  and  _745
REMARK  280  A    between atoms: _745  and  _746
REMARK  281  A    between atoms: _745  and  _748
REMARK  282  A    between atoms: _748  and  _749
REMARK  283  A    between atoms: _754  and  _755
REMARK  284  A    between atoms: _757  and  _759
REMARK  285  A    between atoms: _759  and  _760
REMARK  286  A    between atoms: _759  and  _762
REMARK  287  A    between atoms: _762  and  _763
REMARK  288  A    between atoms: _769  and  _771
REMARK  289  A    between atoms: _771  and  _772
REMARK  290  A    between atoms: _771  and  _774
REMARK  291  A    between atoms: _774  and  _775
REMARK  292  A    between atoms: _777  and  _779
REMARK  293  A    between atoms: _779  and  _780
REMARK  294  A    between atoms: _779  and  _782
REMARK  295  A    between atoms: _782  and  _783
REMARK  296  A    between atoms: _789  and  _791
REMARK  297  A    between atoms: _791  and  _792
REMARK  298  A    between atoms: _791  and  _794
REMARK  299  A    between atoms: _794  and  _795
REMARK  300  A    between atoms: _795  and  _796
REMARK                            x       y       z     vdW  Elec       q    Type
REMARK                         _______ _______ _______ _____ _____    ______ ____
ROOT
ATOM      1  O   HOH     1       4.744 -19.626 -17.457  0.00  0.00    +0.000 OA
ENDROOT
TORSDOF 0
