REMARK  Name = ../refined-set-2016/3f8f/3f8f_pocket.pdb
REMARK  225 active torsions:
REMARK  status: ('A' for Active; 'I' for Inactive)
REMARK    1  A    between atoms: _1  and  _3
REMARK    2  A    between atoms: _3  and  _4
REMARK    3  A    between atoms: _3  and  _6
REMARK    4  A    between atoms: _6  and  _7
REMARK    5  A    between atoms: _11  and  _12
REMARK    6  A    between atoms: _17  and  _19
REMARK    7  A    between atoms: _19  and  _20
REMARK    8  A    between atoms: _19  and  _22
REMARK    9  A    between atoms: _22  and  _23
REMARK   10  A    between atoms: _23  and  _24
REMARK   11  A    between atoms: _27  and  _29
REMARK   12  A    between atoms: _29  and  _30
REMARK   13  A    between atoms: _29  and  _32
REMARK   14  A    between atoms: _32  and  _33
REMARK   15  A    between atoms: _33  and  _34
REMARK   16  A    between atoms: _36  and  _38
REMARK   17  A    between atoms: _38  and  _39
REMARK   18  A    between atoms: _38  and  _41
REMARK   19  A    between atoms: _41  and  _42
REMARK   20  A    between atoms: _45  and  _47
REMARK   21  A    between atoms: _47  and  _48
REMARK   22  A    between atoms: _47  and  _50
REMARK   23  A    between atoms: _50  and  _51
REMARK   24  A    between atoms: _51  and  _52
REMARK   25  A    between atoms: _52  and  _53
REMARK   26  A    between atoms: _62  and  _64
REMARK   27  A    between atoms: _64  and  _65
REMARK   28  A    between atoms: _68  and  _70
REMARK   29  A    between atoms: _70  and  _71
REMARK   30  A    between atoms: _70  and  _73
REMARK   31  A    between atoms: _73  and  _74
REMARK   32  A    between atoms: _74  and  _75
REMARK   33  A    between atoms: _80  and  _82
REMARK   34  A    between atoms: _82  and  _83
REMARK   35  A    between atoms: _82  and  _85
REMARK   36  A    between atoms: _85  and  _86
REMARK   37  A    between atoms: _91  and  _93
REMARK   38  A    between atoms: _93  and  _94
REMARK   39  A    between atoms: _93  and  _96
REMARK   40  A    between atoms: _99  and  _101
REMARK   41  A    between atoms: _101  and  _102
REMARK   42  A    between atoms: _101  and  _104
REMARK   43  A    between atoms: _104  and  _105
REMARK   44  A    between atoms: _108  and  _110
REMARK   45  A    between atoms: _110  and  _111
REMARK   46  A    between atoms: _110  and  _113
REMARK   47  A    between atoms: _113  and  _114
REMARK   48  A    between atoms: _117  and  _119
REMARK   49  A    between atoms: _119  and  _120
REMARK   50  A    between atoms: _119  and  _122
REMARK   51  A    between atoms: _122  and  _123
REMARK   52  A    between atoms: _128  and  _130
REMARK   53  A    between atoms: _130  and  _131
REMARK   54  A    between atoms: _130  and  _133
REMARK   55  A    between atoms: _133  and  _134
REMARK   56  A    between atoms: _134  and  _135
REMARK   57  A    between atoms: _135  and  _136
REMARK   58  A    between atoms: _136  and  _137
REMARK   59  A    between atoms: _141  and  _143
REMARK   60  A    between atoms: _143  and  _144
REMARK   61  A    between atoms: _146  and  _148
REMARK   62  A    between atoms: _148  and  _149
REMARK   63  A    between atoms: _148  and  _151
REMARK   64  A    between atoms: _151  and  _152
REMARK   65  A    between atoms: _157  and  _159
REMARK   66  A    between atoms: _159  and  _160
REMARK   67  A    between atoms: _159  and  _162
REMARK   68  A    between atoms: _162  and  _163
REMARK   69  A    between atoms: _163  and  _164
REMARK   70  A    between atoms: _167  and  _169
REMARK   71  A    between atoms: _169  and  _170
REMARK   72  A    between atoms: _169  and  _172
REMARK   73  A    between atoms: _172  and  _173
REMARK   74  A    between atoms: _178  and  _180
REMARK   75  A    between atoms: _180  and  _181
REMARK   76  A    between atoms: _180  and  _183
REMARK   77  A    between atoms: _183  and  _184
REMARK   78  A    between atoms: _184  and  _185
REMARK   79  A    between atoms: _187  and  _189
REMARK   80  A    between atoms: _189  and  _190
REMARK   81  A    between atoms: _189  and  _192
REMARK   82  A    between atoms: _192  and  _193
REMARK   83  A    between atoms: _193  and  _194
REMARK   84  A    between atoms: _194  and  _195
REMARK   85  A    between atoms: _204  and  _206
REMARK   86  A    between atoms: _206  and  _207
REMARK   87  A    between atoms: _206  and  _209
REMARK   88  A    between atoms: _209  and  _210
REMARK   89  A    between atoms: _213  and  _215
REMARK   90  A    between atoms: _215  and  _216
REMARK   91  A    between atoms: _219  and  _221
REMARK   92  A    between atoms: _221  and  _222
REMARK   93  A    between atoms: _221  and  _224
REMARK   94  A    between atoms: _224  and  _225
REMARK   95  A    between atoms: _231  and  _233
REMARK   96  A    between atoms: _233  and  _234
REMARK   97  A    between atoms: _233  and  _236
REMARK   98  A    between atoms: _236  and  _237
REMARK   99  A    between atoms: _237  and  _238
REMARK  100  A    between atoms: _241  and  _243
REMARK  101  A    between atoms: _243  and  _244
REMARK  102  A    between atoms: _243  and  _246
REMARK  103  A    between atoms: _246  and  _247
REMARK  104  A    between atoms: _249  and  _251
REMARK  105  A    between atoms: _251  and  _252
REMARK  106  A    between atoms: _251  and  _254
REMARK  107  A    between atoms: _254  and  _255
REMARK  108  A    between atoms: _265  and  _267
REMARK  109  A    between atoms: _267  and  _268
REMARK  110  A    between atoms: _267  and  _270
REMARK  111  A    between atoms: _270  and  _271
REMARK  112  A    between atoms: _273  and  _275
REMARK  113  A    between atoms: _275  and  _276
REMARK  114  A    between atoms: _275  and  _278
REMARK  115  A    between atoms: _281  and  _283
REMARK  116  A    between atoms: _283  and  _284
REMARK  117  A    between atoms: _283  and  _286
REMARK  118  A    between atoms: _286  and  _287
REMARK  119  A    between atoms: _290  and  _292
REMARK  120  A    between atoms: _292  and  _293
REMARK  121  A    between atoms: _292  and  _295
REMARK  122  A    between atoms: _295  and  _296
REMARK  123  A    between atoms: _299  and  _301
REMARK  124  A    between atoms: _301  and  _302
REMARK  125  A    between atoms: _301  and  _304
REMARK  126  A    between atoms: _304  and  _305
REMARK  127  A    between atoms: _305  and  _306
REMARK  128  A    between atoms: _309  and  _311
REMARK  129  A    between atoms: _311  and  _312
REMARK  130  A    between atoms: _311  and  _314
REMARK  131  A    between atoms: _314  and  _315
REMARK  132  A    between atoms: _315  and  _316
REMARK  133  A    between atoms: _318  and  _320
REMARK  134  A    between atoms: _320  and  _321
REMARK  135  A    between atoms: _320  and  _323
REMARK  136  A    between atoms: _323  and  _324
REMARK  137  A    between atoms: _327  and  _329
REMARK  138  A    between atoms: _329  and  _330
REMARK  139  A    between atoms: _329  and  _332
REMARK  140  A    between atoms: _332  and  _333
REMARK  141  A    between atoms: _333  and  _334
REMARK  142  A    between atoms: _334  and  _335
REMARK  143  A    between atoms: _344  and  _346
REMARK  144  A    between atoms: _346  and  _347
REMARK  145  A    between atoms: _350  and  _352
REMARK  146  A    between atoms: _352  and  _353
REMARK  147  A    between atoms: _352  and  _355
REMARK  148  A    between atoms: _355  and  _356
REMARK  149  A    between atoms: _356  and  _357
REMARK  150  A    between atoms: _362  and  _364
REMARK  151  A    between atoms: _364  and  _365
REMARK  152  A    between atoms: _364  and  _367
REMARK  153  A    between atoms: _367  and  _368
REMARK  154  A    between atoms: _373  and  _375
REMARK  155  A    between atoms: _375  and  _376
REMARK  156  A    between atoms: _375  and  _378
REMARK  157  A    between atoms: _381  and  _383
REMARK  158  A    between atoms: _383  and  _384
REMARK  159  A    between atoms: _383  and  _386
REMARK  160  A    between atoms: _386  and  _387
REMARK  161  A    between atoms: _390  and  _392
REMARK  162  A    between atoms: _392  and  _393
REMARK  163  A    between atoms: _392  and  _395
REMARK  164  A    between atoms: _395  and  _396
REMARK  165  A    between atoms: _399  and  _401
REMARK  166  A    between atoms: _401  and  _402
REMARK  167  A    between atoms: _401  and  _404
REMARK  168  A    between atoms: _404  and  _405
REMARK  169  A    between atoms: _410  and  _412
REMARK  170  A    between atoms: _412  and  _413
REMARK  171  A    between atoms: _412  and  _415
REMARK  172  A    between atoms: _415  and  _416
REMARK  173  A    between atoms: _421  and  _423
REMARK  174  A    between atoms: _423  and  _424
REMARK  175  A    between atoms: _423  and  _426
REMARK  176  A    between atoms: _426  and  _427
REMARK  177  A    between atoms: _427  and  _428
REMARK  178  A    between atoms: _430  and  _432
REMARK  179  A    between atoms: _432  and  _433
REMARK  180  A    between atoms: _432  and  _435
REMARK  181  A    between atoms: _435  and  _436
REMARK  182  A    between atoms: _439  and  _441
REMARK  183  A    between atoms: _441  and  _442
REMARK  184  A    between atoms: _445  and  _447
REMARK  185  A    between atoms: _447  and  _448
REMARK  186  A    between atoms: _447  and  _450
REMARK  187  A    between atoms: _450  and  _451
REMARK  188  A    between atoms: _457  and  _459
REMARK  189  A    between atoms: _459  and  _460
REMARK  190  A    between atoms: _459  and  _462
REMARK  191  A    between atoms: _462  and  _463
REMARK  192  A    between atoms: _463  and  _464
REMARK  193  A    between atoms: _467  and  _469
REMARK  194  A    between atoms: _469  and  _470
REMARK  195  A    between atoms: _469  and  _472
REMARK  196  A    between atoms: _472  and  _473
REMARK  197  A    between atoms: _475  and  _477
REMARK  198  A    between atoms: _477  and  _478
REMARK  199  A    between atoms: _477  and  _480
REMARK  200  A    between atoms: _480  and  _481
REMARK  201  A    between atoms: _491  and  _493
REMARK  202  A    between atoms: _493  and  _494
REMARK  203  A    between atoms: _493  and  _496
REMARK  204  A    between atoms: _496  and  _497
REMARK  205  A    between atoms: _499  and  _501
REMARK  206  A    between atoms: _501  and  _502
REMARK  207  A    between atoms: _501  and  _504
REMARK  208  A    between atoms: _507  and  _509
REMARK  209  A    between atoms: _509  and  _510
REMARK  210  A    between atoms: _509  and  _512
REMARK  211  A    between atoms: _512  and  _513
REMARK  212  A    between atoms: _516  and  _518
REMARK  213  A    between atoms: _518  and  _519
REMARK  214  A    between atoms: _518  and  _521
REMARK  215  A    between atoms: _521  and  _522
REMARK  216  A    between atoms: _525  and  _527
REMARK  217  A    between atoms: _527  and  _528
REMARK  218  A    between atoms: _527  and  _530
REMARK  219  A    between atoms: _530  and  _531
REMARK  220  A    between atoms: _531  and  _532
REMARK  221  A    between atoms: _535  and  _537
REMARK  222  A    between atoms: _537  and  _538
REMARK  223  A    between atoms: _537  and  _540
REMARK  224  A    between atoms: _540  and  _541
REMARK  225  A    between atoms: _541  and  _542
REMARK                            x       y       z     vdW  Elec       q    Type
REMARK                         _______ _______ _______ _____ _____    ______ ____
ROOT
ATOM      1  C   ILE A   1      34.694  34.875  47.749  0.00  0.00    +0.241 C 
ATOM      2  O   ILE A   1      35.515  34.408  48.534  0.00  0.00    -0.273 OA
ATOM      3  N   PRO A   2      34.527  36.185  47.583  0.00  0.00    -0.273 N 
ATOM      4  CA  PRO A   2      35.334  37.120  48.297  0.00  0.00    +0.140 C 
ATOM      5  CB  PRO A   2      35.145  38.411  47.506  0.00  0.00    +0.030 C 
ATOM      6  CG  PRO A   2      33.845  38.289  46.903  0.00  0.00    +0.024 C 
ATOM      7  CD  PRO A   2      33.566  36.850  46.696  0.00  0.00    +0.094 C 
ENDROOT
BRANCH   4   8
ATOM      8  C   PRO A   2      34.866  37.295  49.754  0.00  0.00    +0.227 C 
ATOM      9  O   PRO A   2      33.732  36.925  50.100  0.00  0.00    -0.286 OA
ENDBRANCH   4   8
BRANCH   1  10
ATOM     10  CA  ILE A   1      33.823  33.960  46.903  0.00  0.00    +0.145 C 
BRANCH  10  11
ATOM     11  N   ILE A   1      34.647  33.047  46.116  0.00  0.00    -0.238 NA
ATOM     12  H   ILE A   1      34.509  32.021  46.219  0.00  0.00    +0.142 HD
ENDBRANCH  10  11
BRANCH  10  13
ATOM     13  CB  ILE A   1      32.829  33.186  47.811  0.00  0.00    +0.025 C 
ATOM     14  CG2 ILE A   1      31.890  34.173  48.580  0.00  0.00    +0.002 C 
BRANCH  13  15
ATOM     15  CG1 ILE A   1      32.018  32.198  46.979  0.00  0.00    +0.002 C 
ATOM     16  CD1 ILE A   1      31.509  32.785  45.649  0.00  0.00    +0.000 C 
ENDBRANCH  13  15
ENDBRANCH  10  13
ENDBRANCH   1  10
TORSDOF 5
REMARK  Name = ../refined-set-2016/3f8f/3f8f_pocket.pdb
REMARK  225 active torsions:
REMARK  status: ('A' for Active; 'I' for Inactive)
REMARK    1  A    between atoms: _1  and  _3
REMARK    2  A    between atoms: _3  and  _4
REMARK    3  A    between atoms: _3  and  _6
REMARK    4  A    between atoms: _6  and  _7
REMARK    5  A    between atoms: _11  and  _12
REMARK    6  A    between atoms: _17  and  _19
REMARK    7  A    between atoms: _19  and  _20
REMARK    8  A    between atoms: _19  and  _22
REMARK    9  A    between atoms: _22  and  _23
REMARK   10  A    between atoms: _23  and  _24
REMARK   11  A    between atoms: _27  and  _29
REMARK   12  A    between atoms: _29  and  _30
REMARK   13  A    between atoms: _29  and  _32
REMARK   14  A    between atoms: _32  and  _33
REMARK   15  A    between atoms: _33  and  _34
REMARK   16  A    between atoms: _36  and  _38
REMARK   17  A    between atoms: _38  and  _39
REMARK   18  A    between atoms: _38  and  _41
REMARK   19  A    between atoms: _41  and  _42
REMARK   20  A    between atoms: _45  and  _47
REMARK   21  A    between atoms: _47  and  _48
REMARK   22  A    between atoms: _47  and  _50
REMARK   23  A    between atoms: _50  and  _51
REMARK   24  A    between atoms: _51  and  _52
REMARK   25  A    between atoms: _52  and  _53
REMARK   26  A    between atoms: _62  and  _64
REMARK   27  A    between atoms: _64  and  _65
REMARK   28  A    between atoms: _68  and  _70
REMARK   29  A    between atoms: _70  and  _71
REMARK   30  A    between atoms: _70  and  _73
REMARK   31  A    between atoms: _73  and  _74
REMARK   32  A    between atoms: _74  and  _75
REMARK   33  A    between atoms: _80  and  _82
REMARK   34  A    between atoms: _82  and  _83
REMARK   35  A    between atoms: _82  and  _85
REMARK   36  A    between atoms: _85  and  _86
REMARK   37  A    between atoms: _91  and  _93
REMARK   38  A    between atoms: _93  and  _94
REMARK   39  A    between atoms: _93  and  _96
REMARK   40  A    between atoms: _99  and  _101
REMARK   41  A    between atoms: _101  and  _102
REMARK   42  A    between atoms: _101  and  _104
REMARK   43  A    between atoms: _104  and  _105
REMARK   44  A    between atoms: _108  and  _110
REMARK   45  A    between atoms: _110  and  _111
REMARK   46  A    between atoms: _110  and  _113
REMARK   47  A    between atoms: _113  and  _114
REMARK   48  A    between atoms: _117  and  _119
REMARK   49  A    between atoms: _119  and  _120
REMARK   50  A    between atoms: _119  and  _122
REMARK   51  A    between atoms: _122  and  _123
REMARK   52  A    between atoms: _128  and  _130
REMARK   53  A    between atoms: _130  and  _131
REMARK   54  A    between atoms: _130  and  _133
REMARK   55  A    between atoms: _133  and  _134
REMARK   56  A    between atoms: _134  and  _135
REMARK   57  A    between atoms: _135  and  _136
REMARK   58  A    between atoms: _136  and  _137
REMARK   59  A    between atoms: _141  and  _143
REMARK   60  A    between atoms: _143  and  _144
REMARK   61  A    between atoms: _146  and  _148
REMARK   62  A    between atoms: _148  and  _149
REMARK   63  A    between atoms: _148  and  _151
REMARK   64  A    between atoms: _151  and  _152
REMARK   65  A    between atoms: _157  and  _159
REMARK   66  A    between atoms: _159  and  _160
REMARK   67  A    between atoms: _159  and  _162
REMARK   68  A    between atoms: _162  and  _163
REMARK   69  A    between atoms: _163  and  _164
REMARK   70  A    between atoms: _167  and  _169
REMARK   71  A    between atoms: _169  and  _170
REMARK   72  A    between atoms: _169  and  _172
REMARK   73  A    between atoms: _172  and  _173
REMARK   74  A    between atoms: _178  and  _180
REMARK   75  A    between atoms: _180  and  _181
REMARK   76  A    between atoms: _180  and  _183
REMARK   77  A    between atoms: _183  and  _184
REMARK   78  A    between atoms: _184  and  _185
REMARK   79  A    between atoms: _187  and  _189
REMARK   80  A    between atoms: _189  and  _190
REMARK   81  A    between atoms: _189  and  _192
REMARK   82  A    between atoms: _192  and  _193
REMARK   83  A    between atoms: _193  and  _194
REMARK   84  A    between atoms: _194  and  _195
REMARK   85  A    between atoms: _204  and  _206
REMARK   86  A    between atoms: _206  and  _207
REMARK   87  A    between atoms: _206  and  _209
REMARK   88  A    between atoms: _209  and  _210
REMARK   89  A    between atoms: _213  and  _215
REMARK   90  A    between atoms: _215  and  _216
REMARK   91  A    between atoms: _219  and  _221
REMARK   92  A    between atoms: _221  and  _222
REMARK   93  A    between atoms: _221  and  _224
REMARK   94  A    between atoms: _224  and  _225
REMARK   95  A    between atoms: _231  and  _233
REMARK   96  A    between atoms: _233  and  _234
REMARK   97  A    between atoms: _233  and  _236
REMARK   98  A    between atoms: _236  and  _237
REMARK   99  A    between atoms: _237  and  _238
REMARK  100  A    between atoms: _241  and  _243
REMARK  101  A    between atoms: _243  and  _244
REMARK  102  A    between atoms: _243  and  _246
REMARK  103  A    between atoms: _246  and  _247
REMARK  104  A    between atoms: _249  and  _251
REMARK  105  A    between atoms: _251  and  _252
REMARK  106  A    between atoms: _251  and  _254
REMARK  107  A    between atoms: _254  and  _255
REMARK  108  A    between atoms: _265  and  _267
REMARK  109  A    between atoms: _267  and  _268
REMARK  110  A    between atoms: _267  and  _270
REMARK  111  A    between atoms: _270  and  _271
REMARK  112  A    between atoms: _273  and  _275
REMARK  113  A    between atoms: _275  and  _276
REMARK  114  A    between atoms: _275  and  _278
REMARK  115  A    between atoms: _281  and  _283
REMARK  116  A    between atoms: _283  and  _284
REMARK  117  A    between atoms: _283  and  _286
REMARK  118  A    between atoms: _286  and  _287
REMARK  119  A    between atoms: _290  and  _292
REMARK  120  A    between atoms: _292  and  _293
REMARK  121  A    between atoms: _292  and  _295
REMARK  122  A    between atoms: _295  and  _296
REMARK  123  A    between atoms: _299  and  _301
REMARK  124  A    between atoms: _301  and  _302
REMARK  125  A    between atoms: _301  and  _304
REMARK  126  A    between atoms: _304  and  _305
REMARK  127  A    between atoms: _305  and  _306
REMARK  128  A    between atoms: _309  and  _311
REMARK  129  A    between atoms: _311  and  _312
REMARK  130  A    between atoms: _311  and  _314
REMARK  131  A    between atoms: _314  and  _315
REMARK  132  A    between atoms: _315  and  _316
REMARK  133  A    between atoms: _318  and  _320
REMARK  134  A    between atoms: _320  and  _321
REMARK  135  A    between atoms: _320  and  _323
REMARK  136  A    between atoms: _323  and  _324
REMARK  137  A    between atoms: _327  and  _329
REMARK  138  A    between atoms: _329  and  _330
REMARK  139  A    between atoms: _329  and  _332
REMARK  140  A    between atoms: _332  and  _333
REMARK  141  A    between atoms: _333  and  _334
REMARK  142  A    between atoms: _334  and  _335
REMARK  143  A    between atoms: _344  and  _346
REMARK  144  A    between atoms: _346  and  _347
REMARK  145  A    between atoms: _350  and  _352
REMARK  146  A    between atoms: _352  and  _353
REMARK  147  A    between atoms: _352  and  _355
REMARK  148  A    between atoms: _355  and  _356
REMARK  149  A    between atoms: _356  and  _357
REMARK  150  A    between atoms: _362  and  _364
REMARK  151  A    between atoms: _364  and  _365
REMARK  152  A    between atoms: _364  and  _367
REMARK  153  A    between atoms: _367  and  _368
REMARK  154  A    between atoms: _373  and  _375
REMARK  155  A    between atoms: _375  and  _376
REMARK  156  A    between atoms: _375  and  _378
REMARK  157  A    between atoms: _381  and  _383
REMARK  158  A    between atoms: _383  and  _384
REMARK  159  A    between atoms: _383  and  _386
REMARK  160  A    between atoms: _386  and  _387
REMARK  161  A    between atoms: _390  and  _392
REMARK  162  A    between atoms: _392  and  _393
REMARK  163  A    between atoms: _392  and  _395
REMARK  164  A    between atoms: _395  and  _396
REMARK  165  A    between atoms: _399  and  _401
REMARK  166  A    between atoms: _401  and  _402
REMARK  167  A    between atoms: _401  and  _404
REMARK  168  A    between atoms: _404  and  _405
REMARK  169  A    between atoms: _410  and  _412
REMARK  170  A    between atoms: _412  and  _413
REMARK  171  A    between atoms: _412  and  _415
REMARK  172  A    between atoms: _415  and  _416
REMARK  173  A    between atoms: _421  and  _423
REMARK  174  A    between atoms: _423  and  _424
REMARK  175  A    between atoms: _423  and  _426
REMARK  176  A    between atoms: _426  and  _427
REMARK  177  A    between atoms: _427  and  _428
REMARK  178  A    between atoms: _430  and  _432
REMARK  179  A    between atoms: _432  and  _433
REMARK  180  A    between atoms: _432  and  _435
REMARK  181  A    between atoms: _435  and  _436
REMARK  182  A    between atoms: _439  and  _441
REMARK  183  A    between atoms: _441  and  _442
REMARK  184  A    between atoms: _445  and  _447
REMARK  185  A    between atoms: _447  and  _448
REMARK  186  A    between atoms: _447  and  _450
REMARK  187  A    between atoms: _450  and  _451
REMARK  188  A    between atoms: _457  and  _459
REMARK  189  A    between atoms: _459  and  _460
REMARK  190  A    between atoms: _459  and  _462
REMARK  191  A    between atoms: _462  and  _463
REMARK  192  A    between atoms: _463  and  _464
REMARK  193  A    between atoms: _467  and  _469
REMARK  194  A    between atoms: _469  and  _470
REMARK  195  A    between atoms: _469  and  _472
REMARK  196  A    between atoms: _472  and  _473
REMARK  197  A    between atoms: _475  and  _477
REMARK  198  A    between atoms: _477  and  _478
REMARK  199  A    between atoms: _477  and  _480
REMARK  200  A    between atoms: _480  and  _481
REMARK  201  A    between atoms: _491  and  _493
REMARK  202  A    between atoms: _493  and  _494
REMARK  203  A    between atoms: _493  and  _496
REMARK  204  A    between atoms: _496  and  _497
REMARK  205  A    between atoms: _499  and  _501
REMARK  206  A    between atoms: _501  and  _502
REMARK  207  A    between atoms: _501  and  _504
REMARK  208  A    between atoms: _507  and  _509
REMARK  209  A    between atoms: _509  and  _510
REMARK  210  A    between atoms: _509  and  _512
REMARK  211  A    between atoms: _512  and  _513
REMARK  212  A    between atoms: _516  and  _518
REMARK  213  A    between atoms: _518  and  _519
REMARK  214  A    between atoms: _518  and  _521
REMARK  215  A    between atoms: _521  and  _522
REMARK  216  A    between atoms: _525  and  _527
REMARK  217  A    between atoms: _527  and  _528
REMARK  218  A    between atoms: _527  and  _530
REMARK  219  A    between atoms: _530  and  _531
REMARK  220  A    between atoms: _531  and  _532
REMARK  221  A    between atoms: _535  and  _537
REMARK  222  A    between atoms: _537  and  _538
REMARK  223  A    between atoms: _537  and  _540
REMARK  224  A    between atoms: _540  and  _541
REMARK  225  A    between atoms: _541  and  _542
REMARK                            x       y       z     vdW  Elec       q    Type
REMARK                         _______ _______ _______ _____ _____    ______ ____
ROOT
ATOM      1  CA  ARG A   4      30.761  37.943  55.715  0.00  0.00    +0.149 C 
ENDROOT
BRANCH   1   4
ATOM      2  C   LEU A   3      30.865  36.013  54.234  0.00  0.00    +0.241 C 
ATOM      3  O   LEU A   3      30.104  35.356  54.937  0.00  0.00    -0.273 OA
ATOM      4  N   ARG A   4      31.251  37.250  54.540  0.00  0.00    -0.297 N 
ATOM      5  H   ARG A   4      31.926  37.735  53.915  0.00  0.00    +0.150 HD
BRANCH   2   6
ATOM      6  CA  LEU A   3      31.435  35.431  52.923  0.00  0.00    +0.149 C 
BRANCH   6   9
ATOM      7  C   MET A   2      30.200  36.933  51.422  0.00  0.00    +0.241 C 
ATOM      8  O   MET A   2      29.126  36.600  51.871  0.00  0.00    -0.273 OA
ATOM      9  N   LEU A   3      31.360  36.401  51.827  0.00  0.00    -0.297 N 
ATOM     10  H   LEU A   3      32.238  36.686  51.347  0.00  0.00    +0.150 HD
BRANCH   7  11
ATOM     11  CA  MET A   2      30.288  38.003  50.351  0.00  0.00    +0.149 C 
BRANCH  11  14
ATOM     12  C   GLU A   1      31.458  39.786  51.539  0.00  0.00    +0.238 C 
ATOM     13  O   GLU A   1      30.485  40.006  52.246  0.00  0.00    -0.274 OA
ATOM     14  N   MET A   2      31.457  38.877  50.571  0.00  0.00    -0.297 N 
ATOM     15  H   MET A   2      32.292  38.779  49.959  0.00  0.00    +0.150 HD
BRANCH  12  16
ATOM     16  CA  GLU A   1      32.757  40.569  51.733  0.00  0.00    +0.145 C 
BRANCH  16  17
ATOM     17  N   GLU A   1      33.936  39.713  51.527  0.00  0.00    -0.238 NA
ATOM     18  H   GLU A   1      34.524  39.857  50.681  0.00  0.00    +0.142 HD
ENDBRANCH  16  17
BRANCH  16  19
ATOM     19  CB  GLU A   1      32.779  41.782  50.788  0.00  0.00    +0.038 C 
BRANCH  19  20
ATOM     20  CG  GLU A   1      33.985  42.695  50.956  0.00  0.00    +0.116 C 
BRANCH  20  21
ATOM     21  CD  GLU A   1      35.039  42.465  49.874  0.00  0.00    +0.365 C 
ATOM     22  OE2 GLU A   1      35.750  43.431  49.523  0.00  0.00    -0.246 OA
ATOM     23  OE1 GLU A   1      35.150  41.323  49.381  0.00  0.00    -0.246 OA
ENDBRANCH  20  21
ENDBRANCH  19  20
ENDBRANCH  16  19
ENDBRANCH  12  16
ENDBRANCH  11  14
BRANCH  11  24
ATOM     24  CB  MET A   2      30.312  37.383  48.964  0.00  0.00    +0.041 C 
BRANCH  24  25
ATOM     25  CG  MET A   2      28.999  36.684  48.582  0.00  0.00    +0.060 C 
BRANCH  25  26
ATOM     26  SD  MET A   2      28.988  35.996  46.901  0.00  0.00    -0.139 S 
ATOM     27  CE  MET A   2      29.209  37.474  45.923  0.00  0.00    +0.069 C 
ENDBRANCH  25  26
ENDBRANCH  24  25
ENDBRANCH  11  24
ENDBRANCH   7  11
ENDBRANCH   6   9
BRANCH   6  28
ATOM     28  CB  LEU A   3      32.868  35.000  53.137  0.00  0.00    +0.029 C 
BRANCH  28  29
ATOM     29  CG  LEU A   3      33.475  34.068  52.106  0.00  0.00    +0.002 C 
ATOM     30  CD2 LEU A   3      34.926  33.834  52.457  0.00  0.00    +0.000 C 
ATOM     31  CD1 LEU A   3      32.697  32.688  52.047  0.00  0.00    +0.000 C 
ENDBRANCH  28  29
ENDBRANCH   6  28
ENDBRANCH   2   6
ENDBRANCH   1   4
BRANCH   1  32
ATOM     32  C   ARG A   4      29.236  38.184  55.615  0.00  0.00    +0.241 C 
ATOM     33  O   ARG A   4      28.502  37.993  56.586  0.00  0.00    -0.273 OA
ATOM     34  N   ALA A   5      28.784  38.606  54.430  0.00  0.00    -0.297 N 
ATOM     35  H   ALA A   5      29.470  38.836  53.683  0.00  0.00    +0.150 HD
BRANCH  34  36
ATOM     36  CA  ALA A   5      27.359  38.755  54.151  0.00  0.00    +0.149 C 
ATOM     37  CB  ALA A   5      27.155  39.207  52.732  0.00  0.00    +0.031 C 
BRANCH  36  38
ATOM     38  C   ALA A   5      26.615  37.451  54.406  0.00  0.00    +0.241 C 
ATOM     39  O   ALA A   5      25.498  37.456  54.961  0.00  0.00    -0.273 OA
ATOM     40  N   GLN A   6      27.233  36.321  54.004  0.00  0.00    -0.298 N 
ATOM     41  H   GLN A   6      28.169  36.393  53.556  0.00  0.00    +0.150 HD
BRANCH  40  42
ATOM     42  CA  GLN A   6      26.621  34.972  54.180  0.00  0.00    +0.137 C 
BRANCH  42  43
ATOM     43  C   GLN A   6      26.530  34.515  55.634  0.00  0.00    +0.227 C 
ATOM     44  O   GLN A   6      25.490  33.985  56.066  0.00  0.00    -0.286 OA
ENDBRANCH  42  43
BRANCH  42  45
ATOM     45  CB  GLN A   6      27.347  33.948  53.341  0.00  0.00    +0.037 C 
BRANCH  45  46
ATOM     46  CG  GLN A   6      27.110  34.159  51.796  0.00  0.00    +0.087 C 
BRANCH  46  47
ATOM     47  CD  GLN A   6      27.839  33.185  50.942  0.00  0.00    +0.219 C 
ATOM     48  OE1 GLN A   6      28.622  32.378  51.429  0.00  0.00    -0.275 OA
ATOM     49  NE2 GLN A   6      27.594  33.250  49.638  0.00  0.00    -0.329 N 
ATOM     50 HE21 GLN A   6      26.921  33.952  49.270  0.00  0.00    +0.145 HD
ATOM     51 HE22 GLN A   6      28.075  32.599  48.985  0.00  0.00    +0.145 HD
ENDBRANCH  46  47
ENDBRANCH  45  46
ENDBRANCH  42  45
ENDBRANCH  40  42
ENDBRANCH  36  38
ENDBRANCH  34  36
ENDBRANCH   1  32
BRANCH   1  52
ATOM     52  CB  ARG A   4      31.495  39.272  55.878  0.00  0.00    +0.033 C 
BRANCH  52  53
ATOM     53  CG  ARG A   4      30.884  40.220  56.928  0.00  0.00    +0.045 C 
BRANCH  53  54
ATOM     54  CD  ARG A   4      30.972  39.646  58.349  0.00  0.00    +0.174 C 
BRANCH  54  55
ATOM     55  NE  ARG A   4      30.552  40.637  59.338  0.00  0.00    -0.265 N 
ATOM     56  CZ  ARG A   4      31.389  41.350  60.080  0.00  0.00    +0.342 C 
ATOM     57  NH2 ARG A   4      30.917  42.237  60.957  0.00  0.00    -0.292 N 
ATOM     58 HH21 ARG A   4      31.575  42.795  61.538  0.00  0.00    +0.255 HD
ATOM     59 HH22 ARG A   4      29.891  42.371  61.060  0.00  0.00    +0.255 HD
ATOM     60  NH1 ARG A   4      32.704  41.177  59.949  0.00  0.00    -0.292 N 
ATOM     61 HH11 ARG A   4      33.362  41.735  60.530  0.00  0.00    +0.255 HD
ATOM     62 HH12 ARG A   4      33.072  40.484  59.266  0.00  0.00    +0.255 HD
ATOM     63  HE  ARG A   4      29.532  40.793  59.468  0.00  0.00    +0.259 HD
ENDBRANCH  54  55
ENDBRANCH  53  54
ENDBRANCH  52  53
ENDBRANCH   1  52
TORSDOF 27
REMARK  Name = ../refined-set-2016/3f8f/3f8f_pocket.pdb
REMARK  225 active torsions:
REMARK  status: ('A' for Active; 'I' for Inactive)
REMARK    1  A    between atoms: _1  and  _3
REMARK    2  A    between atoms: _3  and  _4
REMARK    3  A    between atoms: _3  and  _6
REMARK    4  A    between atoms: _6  and  _7
REMARK    5  A    between atoms: _11  and  _12
REMARK    6  A    between atoms: _17  and  _19
REMARK    7  A    between atoms: _19  and  _20
REMARK    8  A    between atoms: _19  and  _22
REMARK    9  A    between atoms: _22  and  _23
REMARK   10  A    between atoms: _23  and  _24
REMARK   11  A    between atoms: _27  and  _29
REMARK   12  A    between atoms: _29  and  _30
REMARK   13  A    between atoms: _29  and  _32
REMARK   14  A    between atoms: _32  and  _33
REMARK   15  A    between atoms: _33  and  _34
REMARK   16  A    between atoms: _36  and  _38
REMARK   17  A    between atoms: _38  and  _39
REMARK   18  A    between atoms: _38  and  _41
REMARK   19  A    between atoms: _41  and  _42
REMARK   20  A    between atoms: _45  and  _47
REMARK   21  A    between atoms: _47  and  _48
REMARK   22  A    between atoms: _47  and  _50
REMARK   23  A    between atoms: _50  and  _51
REMARK   24  A    between atoms: _51  and  _52
REMARK   25  A    between atoms: _52  and  _53
REMARK   26  A    between atoms: _62  and  _64
REMARK   27  A    between atoms: _64  and  _65
REMARK   28  A    between atoms: _68  and  _70
REMARK   29  A    between atoms: _70  and  _71
REMARK   30  A    between atoms: _70  and  _73
REMARK   31  A    between atoms: _73  and  _74
REMARK   32  A    between atoms: _74  and  _75
REMARK   33  A    between atoms: _80  and  _82
REMARK   34  A    between atoms: _82  and  _83
REMARK   35  A    between atoms: _82  and  _85
REMARK   36  A    between atoms: _85  and  _86
REMARK   37  A    between atoms: _91  and  _93
REMARK   38  A    between atoms: _93  and  _94
REMARK   39  A    between atoms: _93  and  _96
REMARK   40  A    between atoms: _99  and  _101
REMARK   41  A    between atoms: _101  and  _102
REMARK   42  A    between atoms: _101  and  _104
REMARK   43  A    between atoms: _104  and  _105
REMARK   44  A    between atoms: _108  and  _110
REMARK   45  A    between atoms: _110  and  _111
REMARK   46  A    between atoms: _110  and  _113
REMARK   47  A    between atoms: _113  and  _114
REMARK   48  A    between atoms: _117  and  _119
REMARK   49  A    between atoms: _119  and  _120
REMARK   50  A    between atoms: _119  and  _122
REMARK   51  A    between atoms: _122  and  _123
REMARK   52  A    between atoms: _128  and  _130
REMARK   53  A    between atoms: _130  and  _131
REMARK   54  A    between atoms: _130  and  _133
REMARK   55  A    between atoms: _133  and  _134
REMARK   56  A    between atoms: _134  and  _135
REMARK   57  A    between atoms: _135  and  _136
REMARK   58  A    between atoms: _136  and  _137
REMARK   59  A    between atoms: _141  and  _143
REMARK   60  A    between atoms: _143  and  _144
REMARK   61  A    between atoms: _146  and  _148
REMARK   62  A    between atoms: _148  and  _149
REMARK   63  A    between atoms: _148  and  _151
REMARK   64  A    between atoms: _151  and  _152
REMARK   65  A    between atoms: _157  and  _159
REMARK   66  A    between atoms: _159  and  _160
REMARK   67  A    between atoms: _159  and  _162
REMARK   68  A    between atoms: _162  and  _163
REMARK   69  A    between atoms: _163  and  _164
REMARK   70  A    between atoms: _167  and  _169
REMARK   71  A    between atoms: _169  and  _170
REMARK   72  A    between atoms: _169  and  _172
REMARK   73  A    between atoms: _172  and  _173
REMARK   74  A    between atoms: _178  and  _180
REMARK   75  A    between atoms: _180  and  _181
REMARK   76  A    between atoms: _180  and  _183
REMARK   77  A    between atoms: _183  and  _184
REMARK   78  A    between atoms: _184  and  _185
REMARK   79  A    between atoms: _187  and  _189
REMARK   80  A    between atoms: _189  and  _190
REMARK   81  A    between atoms: _189  and  _192
REMARK   82  A    between atoms: _192  and  _193
REMARK   83  A    between atoms: _193  and  _194
REMARK   84  A    between atoms: _194  and  _195
REMARK   85  A    between atoms: _204  and  _206
REMARK   86  A    between atoms: _206  and  _207
REMARK   87  A    between atoms: _206  and  _209
REMARK   88  A    between atoms: _209  and  _210
REMARK   89  A    between atoms: _213  and  _215
REMARK   90  A    between atoms: _215  and  _216
REMARK   91  A    between atoms: _219  and  _221
REMARK   92  A    between atoms: _221  and  _222
REMARK   93  A    between atoms: _221  and  _224
REMARK   94  A    between atoms: _224  and  _225
REMARK   95  A    between atoms: _231  and  _233
REMARK   96  A    between atoms: _233  and  _234
REMARK   97  A    between atoms: _233  and  _236
REMARK   98  A    between atoms: _236  and  _237
REMARK   99  A    between atoms: _237  and  _238
REMARK  100  A    between atoms: _241  and  _243
REMARK  101  A    between atoms: _243  and  _244
REMARK  102  A    between atoms: _243  and  _246
REMARK  103  A    between atoms: _246  and  _247
REMARK  104  A    between atoms: _249  and  _251
REMARK  105  A    between atoms: _251  and  _252
REMARK  106  A    between atoms: _251  and  _254
REMARK  107  A    between atoms: _254  and  _255
REMARK  108  A    between atoms: _265  and  _267
REMARK  109  A    between atoms: _267  and  _268
REMARK  110  A    between atoms: _267  and  _270
REMARK  111  A    between atoms: _270  and  _271
REMARK  112  A    between atoms: _273  and  _275
REMARK  113  A    between atoms: _275  and  _276
REMARK  114  A    between atoms: _275  and  _278
REMARK  115  A    between atoms: _281  and  _283
REMARK  116  A    between atoms: _283  and  _284
REMARK  117  A    between atoms: _283  and  _286
REMARK  118  A    between atoms: _286  and  _287
REMARK  119  A    between atoms: _290  and  _292
REMARK  120  A    between atoms: _292  and  _293
REMARK  121  A    between atoms: _292  and  _295
REMARK  122  A    between atoms: _295  and  _296
REMARK  123  A    between atoms: _299  and  _301
REMARK  124  A    between atoms: _301  and  _302
REMARK  125  A    between atoms: _301  and  _304
REMARK  126  A    between atoms: _304  and  _305
REMARK  127  A    between atoms: _305  and  _306
REMARK  128  A    between atoms: _309  and  _311
REMARK  129  A    between atoms: _311  and  _312
REMARK  130  A    between atoms: _311  and  _314
REMARK  131  A    between atoms: _314  and  _315
REMARK  132  A    between atoms: _315  and  _316
REMARK  133  A    between atoms: _318  and  _320
REMARK  134  A    between atoms: _320  and  _321
REMARK  135  A    between atoms: _320  and  _323
REMARK  136  A    between atoms: _323  and  _324
REMARK  137  A    between atoms: _327  and  _329
REMARK  138  A    between atoms: _329  and  _330
REMARK  139  A    between atoms: _329  and  _332
REMARK  140  A    between atoms: _332  and  _333
REMARK  141  A    between atoms: _333  and  _334
REMARK  142  A    between atoms: _334  and  _335
REMARK  143  A    between atoms: _344  and  _346
REMARK  144  A    between atoms: _346  and  _347
REMARK  145  A    between atoms: _350  and  _352
REMARK  146  A    between atoms: _352  and  _353
REMARK  147  A    between atoms: _352  and  _355
REMARK  148  A    between atoms: _355  and  _356
REMARK  149  A    between atoms: _356  and  _357
REMARK  150  A    between atoms: _362  and  _364
REMARK  151  A    between atoms: _364  and  _365
REMARK  152  A    between atoms: _364  and  _367
REMARK  153  A    between atoms: _367  and  _368
REMARK  154  A    between atoms: _373  and  _375
REMARK  155  A    between atoms: _375  and  _376
REMARK  156  A    between atoms: _375  and  _378
REMARK  157  A    between atoms: _381  and  _383
REMARK  158  A    between atoms: _383  and  _384
REMARK  159  A    between atoms: _383  and  _386
REMARK  160  A    between atoms: _386  and  _387
REMARK  161  A    between atoms: _390  and  _392
REMARK  162  A    between atoms: _392  and  _393
REMARK  163  A    between atoms: _392  and  _395
REMARK  164  A    between atoms: _395  and  _396
REMARK  165  A    between atoms: _399  and  _401
REMARK  166  A    between atoms: _401  and  _402
REMARK  167  A    between atoms: _401  and  _404
REMARK  168  A    between atoms: _404  and  _405
REMARK  169  A    between atoms: _410  and  _412
REMARK  170  A    between atoms: _412  and  _413
REMARK  171  A    between atoms: _412  and  _415
REMARK  172  A    between atoms: _415  and  _416
REMARK  173  A    between atoms: _421  and  _423
REMARK  174  A    between atoms: _423  and  _424
REMARK  175  A    between atoms: _423  and  _426
REMARK  176  A    between atoms: _426  and  _427
REMARK  177  A    between atoms: _427  and  _428
REMARK  178  A    between atoms: _430  and  _432
REMARK  179  A    between atoms: _432  and  _433
REMARK  180  A    between atoms: _432  and  _435
REMARK  181  A    between atoms: _435  and  _436
REMARK  182  A    between atoms: _439  and  _441
REMARK  183  A    between atoms: _441  and  _442
REMARK  184  A    between atoms: _445  and  _447
REMARK  185  A    between atoms: _447  and  _448
REMARK  186  A    between atoms: _447  and  _450
REMARK  187  A    between atoms: _450  and  _451
REMARK  188  A    between atoms: _457  and  _459
REMARK  189  A    between atoms: _459  and  _460
REMARK  190  A    between atoms: _459  and  _462
REMARK  191  A    between atoms: _462  and  _463
REMARK  192  A    between atoms: _463  and  _464
REMARK  193  A    between atoms: _467  and  _469
REMARK  194  A    between atoms: _469  and  _470
REMARK  195  A    between atoms: _469  and  _472
REMARK  196  A    between atoms: _472  and  _473
REMARK  197  A    between atoms: _475  and  _477
REMARK  198  A    between atoms: _477  and  _478
REMARK  199  A    between atoms: _477  and  _480
REMARK  200  A    between atoms: _480  and  _481
REMARK  201  A    between atoms: _491  and  _493
REMARK  202  A    between atoms: _493  and  _494
REMARK  203  A    between atoms: _493  and  _496
REMARK  204  A    between atoms: _496  and  _497
REMARK  205  A    between atoms: _499  and  _501
REMARK  206  A    between atoms: _501  and  _502
REMARK  207  A    between atoms: _501  and  _504
REMARK  208  A    between atoms: _507  and  _509
REMARK  209  A    between atoms: _509  and  _510
REMARK  210  A    between atoms: _509  and  _512
REMARK  211  A    between atoms: _512  and  _513
REMARK  212  A    between atoms: _516  and  _518
REMARK  213  A    between atoms: _518  and  _519
REMARK  214  A    between atoms: _518  and  _521
REMARK  215  A    between atoms: _521  and  _522
REMARK  216  A    between atoms: _525  and  _527
REMARK  217  A    between atoms: _527  and  _528
REMARK  218  A    between atoms: _527  and  _530
REMARK  219  A    between atoms: _530  and  _531
REMARK  220  A    between atoms: _531  and  _532
REMARK  221  A    between atoms: _535  and  _537
REMARK  222  A    between atoms: _537  and  _538
REMARK  223  A    between atoms: _537  and  _540
REMARK  224  A    between atoms: _540  and  _541
REMARK  225  A    between atoms: _541  and  _542
REMARK                            x       y       z     vdW  Elec       q    Type
REMARK                         _______ _______ _______ _____ _____    ______ ____
ROOT
ATOM      1  CA  VAL A   2      22.425  36.158  57.079  0.00  0.00    +0.148 C 
ENDROOT
BRANCH   1   4
ATOM      2  C   ASN A   1      24.127  36.949  58.600  0.00  0.00    +0.239 C 
ATOM      3  O   ASN A   1      23.410  36.791  59.590  0.00  0.00    -0.274 OA
ATOM      4  N   VAL A   2      23.745  36.642  57.375  0.00  0.00    -0.297 N 
ATOM      5  H   VAL A   2      24.424  36.754  56.595  0.00  0.00    +0.150 HD
BRANCH   2   6
ATOM      6  CA  ASN A   1      25.560  37.530  58.726  0.00  0.00    +0.154 C 
BRANCH   6   7
ATOM      7  N   ASN A   1      26.535  36.620  58.191  0.00  0.00    -0.238 NA
ATOM      8  H   ASN A   1      27.238  36.974  57.511  0.00  0.00    +0.142 HD
ENDBRANCH   6   7
BRANCH   6   9
ATOM      9  CB  ASN A   1      25.638  38.831  57.977  0.00  0.00    +0.111 C 
BRANCH   9  10
ATOM     10  CG  ASN A   1      26.190  39.916  58.789  0.00  0.00    +0.221 C 
ATOM     11  OD1 ASN A   1      25.474  40.816  59.188  0.00  0.00    -0.275 OA
ATOM     12  ND2 ASN A   1      27.487  39.857  59.060  0.00  0.00    -0.329 N 
ATOM     13 HD21 ASN A   1      27.932  40.600  59.636  0.00  0.00    +0.145 HD
ATOM     14 HD22 ASN A   1      28.059  39.068  58.697  0.00  0.00    +0.145 HD
ENDBRANCH   9  10
ENDBRANCH   6   9
ENDBRANCH   2   6
ENDBRANCH   1   4
BRANCH   1  15
ATOM     15  C   VAL A   2      22.071  34.935  57.916  0.00  0.00    +0.241 C 
ATOM     16  O   VAL A   2      20.962  34.834  58.434  0.00  0.00    -0.273 OA
ATOM     17  N   ILE A   3      23.023  34.003  58.049  0.00  0.00    -0.298 N 
ATOM     18  H   ILE A   3      23.943  34.140  57.584  0.00  0.00    +0.150 HD
BRANCH  17  19
ATOM     19  CA  ILE A   3      22.789  32.806  58.832  0.00  0.00    +0.137 C 
BRANCH  19  20
ATOM     20  C   ILE A   3      22.503  33.174  60.325  0.00  0.00    +0.227 C 
ATOM     21  O   ILE A   3      21.474  32.747  60.905  0.00  0.00    -0.286 OA
ENDBRANCH  19  20
BRANCH  19  22
ATOM     22  CB  ILE A   3      23.977  31.791  58.734  0.00  0.00    +0.026 C 
ATOM     23  CG2 ILE A   3      23.827  30.705  59.761  0.00  0.00    +0.002 C 
BRANCH  22  24
ATOM     24  CG1 ILE A   3      24.023  31.149  57.345  0.00  0.00    +0.002 C 
ATOM     25  CD1 ILE A   3      25.423  30.612  56.941  0.00  0.00    +0.000 C 
ENDBRANCH  22  24
ENDBRANCH  19  22
ENDBRANCH  17  19
ENDBRANCH   1  15
BRANCH   1  26
ATOM     26  CB  VAL A   2      22.283  35.827  55.551  0.00  0.00    +0.027 C 
ATOM     27  CG2 VAL A   2      20.947  35.108  55.271  0.00  0.00    +0.002 C 
ATOM     28  CG1 VAL A   2      22.386  37.108  54.732  0.00  0.00    +0.002 C 
ENDBRANCH   1  26
TORSDOF 11
REMARK  Name = ../refined-set-2016/3f8f/3f8f_pocket.pdb
REMARK  225 active torsions:
REMARK  status: ('A' for Active; 'I' for Inactive)
REMARK    1  A    between atoms: _1  and  _3
REMARK    2  A    between atoms: _3  and  _4
REMARK    3  A    between atoms: _3  and  _6
REMARK    4  A    between atoms: _6  and  _7
REMARK    5  A    between atoms: _11  and  _12
REMARK    6  A    between atoms: _17  and  _19
REMARK    7  A    between atoms: _19  and  _20
REMARK    8  A    between atoms: _19  and  _22
REMARK    9  A    between atoms: _22  and  _23
REMARK   10  A    between atoms: _23  and  _24
REMARK   11  A    between atoms: _27  and  _29
REMARK   12  A    between atoms: _29  and  _30
REMARK   13  A    between atoms: _29  and  _32
REMARK   14  A    between atoms: _32  and  _33
REMARK   15  A    between atoms: _33  and  _34
REMARK   16  A    between atoms: _36  and  _38
REMARK   17  A    between atoms: _38  and  _39
REMARK   18  A    between atoms: _38  and  _41
REMARK   19  A    between atoms: _41  and  _42
REMARK   20  A    between atoms: _45  and  _47
REMARK   21  A    between atoms: _47  and  _48
REMARK   22  A    between atoms: _47  and  _50
REMARK   23  A    between atoms: _50  and  _51
REMARK   24  A    between atoms: _51  and  _52
REMARK   25  A    between atoms: _52  and  _53
REMARK   26  A    between atoms: _62  and  _64
REMARK   27  A    between atoms: _64  and  _65
REMARK   28  A    between atoms: _68  and  _70
REMARK   29  A    between atoms: _70  and  _71
REMARK   30  A    between atoms: _70  and  _73
REMARK   31  A    between atoms: _73  and  _74
REMARK   32  A    between atoms: _74  and  _75
REMARK   33  A    between atoms: _80  and  _82
REMARK   34  A    between atoms: _82  and  _83
REMARK   35  A    between atoms: _82  and  _85
REMARK   36  A    between atoms: _85  and  _86
REMARK   37  A    between atoms: _91  and  _93
REMARK   38  A    between atoms: _93  and  _94
REMARK   39  A    between atoms: _93  and  _96
REMARK   40  A    between atoms: _99  and  _101
REMARK   41  A    between atoms: _101  and  _102
REMARK   42  A    between atoms: _101  and  _104
REMARK   43  A    between atoms: _104  and  _105
REMARK   44  A    between atoms: _108  and  _110
REMARK   45  A    between atoms: _110  and  _111
REMARK   46  A    between atoms: _110  and  _113
REMARK   47  A    between atoms: _113  and  _114
REMARK   48  A    between atoms: _117  and  _119
REMARK   49  A    between atoms: _119  and  _120
REMARK   50  A    between atoms: _119  and  _122
REMARK   51  A    between atoms: _122  and  _123
REMARK   52  A    between atoms: _128  and  _130
REMARK   53  A    between atoms: _130  and  _131
REMARK   54  A    between atoms: _130  and  _133
REMARK   55  A    between atoms: _133  and  _134
REMARK   56  A    between atoms: _134  and  _135
REMARK   57  A    between atoms: _135  and  _136
REMARK   58  A    between atoms: _136  and  _137
REMARK   59  A    between atoms: _141  and  _143
REMARK   60  A    between atoms: _143  and  _144
REMARK   61  A    between atoms: _146  and  _148
REMARK   62  A    between atoms: _148  and  _149
REMARK   63  A    between atoms: _148  and  _151
REMARK   64  A    between atoms: _151  and  _152
REMARK   65  A    between atoms: _157  and  _159
REMARK   66  A    between atoms: _159  and  _160
REMARK   67  A    between atoms: _159  and  _162
REMARK   68  A    between atoms: _162  and  _163
REMARK   69  A    between atoms: _163  and  _164
REMARK   70  A    between atoms: _167  and  _169
REMARK   71  A    between atoms: _169  and  _170
REMARK   72  A    between atoms: _169  and  _172
REMARK   73  A    between atoms: _172  and  _173
REMARK   74  A    between atoms: _178  and  _180
REMARK   75  A    between atoms: _180  and  _181
REMARK   76  A    between atoms: _180  and  _183
REMARK   77  A    between atoms: _183  and  _184
REMARK   78  A    between atoms: _184  and  _185
REMARK   79  A    between atoms: _187  and  _189
REMARK   80  A    between atoms: _189  and  _190
REMARK   81  A    between atoms: _189  and  _192
REMARK   82  A    between atoms: _192  and  _193
REMARK   83  A    between atoms: _193  and  _194
REMARK   84  A    between atoms: _194  and  _195
REMARK   85  A    between atoms: _204  and  _206
REMARK   86  A    between atoms: _206  and  _207
REMARK   87  A    between atoms: _206  and  _209
REMARK   88  A    between atoms: _209  and  _210
REMARK   89  A    between atoms: _213  and  _215
REMARK   90  A    between atoms: _215  and  _216
REMARK   91  A    between atoms: _219  and  _221
REMARK   92  A    between atoms: _221  and  _222
REMARK   93  A    between atoms: _221  and  _224
REMARK   94  A    between atoms: _224  and  _225
REMARK   95  A    between atoms: _231  and  _233
REMARK   96  A    between atoms: _233  and  _234
REMARK   97  A    between atoms: _233  and  _236
REMARK   98  A    between atoms: _236  and  _237
REMARK   99  A    between atoms: _237  and  _238
REMARK  100  A    between atoms: _241  and  _243
REMARK  101  A    between atoms: _243  and  _244
REMARK  102  A    between atoms: _243  and  _246
REMARK  103  A    between atoms: _246  and  _247
REMARK  104  A    between atoms: _249  and  _251
REMARK  105  A    between atoms: _251  and  _252
REMARK  106  A    between atoms: _251  and  _254
REMARK  107  A    between atoms: _254  and  _255
REMARK  108  A    between atoms: _265  and  _267
REMARK  109  A    between atoms: _267  and  _268
REMARK  110  A    between atoms: _267  and  _270
REMARK  111  A    between atoms: _270  and  _271
REMARK  112  A    between atoms: _273  and  _275
REMARK  113  A    between atoms: _275  and  _276
REMARK  114  A    between atoms: _275  and  _278
REMARK  115  A    between atoms: _281  and  _283
REMARK  116  A    between atoms: _283  and  _284
REMARK  117  A    between atoms: _283  and  _286
REMARK  118  A    between atoms: _286  and  _287
REMARK  119  A    between atoms: _290  and  _292
REMARK  120  A    between atoms: _292  and  _293
REMARK  121  A    between atoms: _292  and  _295
REMARK  122  A    between atoms: _295  and  _296
REMARK  123  A    between atoms: _299  and  _301
REMARK  124  A    between atoms: _301  and  _302
REMARK  125  A    between atoms: _301  and  _304
REMARK  126  A    between atoms: _304  and  _305
REMARK  127  A    between atoms: _305  and  _306
REMARK  128  A    between atoms: _309  and  _311
REMARK  129  A    between atoms: _311  and  _312
REMARK  130  A    between atoms: _311  and  _314
REMARK  131  A    between atoms: _314  and  _315
REMARK  132  A    between atoms: _315  and  _316
REMARK  133  A    between atoms: _318  and  _320
REMARK  134  A    between atoms: _320  and  _321
REMARK  135  A    between atoms: _320  and  _323
REMARK  136  A    between atoms: _323  and  _324
REMARK  137  A    between atoms: _327  and  _329
REMARK  138  A    between atoms: _329  and  _330
REMARK  139  A    between atoms: _329  and  _332
REMARK  140  A    between atoms: _332  and  _333
REMARK  141  A    between atoms: _333  and  _334
REMARK  142  A    between atoms: _334  and  _335
REMARK  143  A    between atoms: _344  and  _346
REMARK  144  A    between atoms: _346  and  _347
REMARK  145  A    between atoms: _350  and  _352
REMARK  146  A    between atoms: _352  and  _353
REMARK  147  A    between atoms: _352  and  _355
REMARK  148  A    between atoms: _355  and  _356
REMARK  149  A    between atoms: _356  and  _357
REMARK  150  A    between atoms: _362  and  _364
REMARK  151  A    between atoms: _364  and  _365
REMARK  152  A    between atoms: _364  and  _367
REMARK  153  A    between atoms: _367  and  _368
REMARK  154  A    between atoms: _373  and  _375
REMARK  155  A    between atoms: _375  and  _376
REMARK  156  A    between atoms: _375  and  _378
REMARK  157  A    between atoms: _381  and  _383
REMARK  158  A    between atoms: _383  and  _384
REMARK  159  A    between atoms: _383  and  _386
REMARK  160  A    between atoms: _386  and  _387
REMARK  161  A    between atoms: _390  and  _392
REMARK  162  A    between atoms: _392  and  _393
REMARK  163  A    between atoms: _392  and  _395
REMARK  164  A    between atoms: _395  and  _396
REMARK  165  A    between atoms: _399  and  _401
REMARK  166  A    between atoms: _401  and  _402
REMARK  167  A    between atoms: _401  and  _404
REMARK  168  A    between atoms: _404  and  _405
REMARK  169  A    between atoms: _410  and  _412
REMARK  170  A    between atoms: _412  and  _413
REMARK  171  A    between atoms: _412  and  _415
REMARK  172  A    between atoms: _415  and  _416
REMARK  173  A    between atoms: _421  and  _423
REMARK  174  A    between atoms: _423  and  _424
REMARK  175  A    between atoms: _423  and  _426
REMARK  176  A    between atoms: _426  and  _427
REMARK  177  A    between atoms: _427  and  _428
REMARK  178  A    between atoms: _430  and  _432
REMARK  179  A    between atoms: _432  and  _433
REMARK  180  A    between atoms: _432  and  _435
REMARK  181  A    between atoms: _435  and  _436
REMARK  182  A    between atoms: _439  and  _441
REMARK  183  A    between atoms: _441  and  _442
REMARK  184  A    between atoms: _445  and  _447
REMARK  185  A    between atoms: _447  and  _448
REMARK  186  A    between atoms: _447  and  _450
REMARK  187  A    between atoms: _450  and  _451
REMARK  188  A    between atoms: _457  and  _459
REMARK  189  A    between atoms: _459  and  _460
REMARK  190  A    between atoms: _459  and  _462
REMARK  191  A    between atoms: _462  and  _463
REMARK  192  A    between atoms: _463  and  _464
REMARK  193  A    between atoms: _467  and  _469
REMARK  194  A    between atoms: _469  and  _470
REMARK  195  A    between atoms: _469  and  _472
REMARK  196  A    between atoms: _472  and  _473
REMARK  197  A    between atoms: _475  and  _477
REMARK  198  A    between atoms: _477  and  _478
REMARK  199  A    between atoms: _477  and  _480
REMARK  200  A    between atoms: _480  and  _481
REMARK  201  A    between atoms: _491  and  _493
REMARK  202  A    between atoms: _493  and  _494
REMARK  203  A    between atoms: _493  and  _496
REMARK  204  A    between atoms: _496  and  _497
REMARK  205  A    between atoms: _499  and  _501
REMARK  206  A    between atoms: _501  and  _502
REMARK  207  A    between atoms: _501  and  _504
REMARK  208  A    between atoms: _507  and  _509
REMARK  209  A    between atoms: _509  and  _510
REMARK  210  A    between atoms: _509  and  _512
REMARK  211  A    between atoms: _512  and  _513
REMARK  212  A    between atoms: _516  and  _518
REMARK  213  A    between atoms: _518  and  _519
REMARK  214  A    between atoms: _518  and  _521
REMARK  215  A    between atoms: _521  and  _522
REMARK  216  A    between atoms: _525  and  _527
REMARK  217  A    between atoms: _527  and  _528
REMARK  218  A    between atoms: _527  and  _530
REMARK  219  A    between atoms: _530  and  _531
REMARK  220  A    between atoms: _531  and  _532
REMARK  221  A    between atoms: _535  and  _537
REMARK  222  A    between atoms: _537  and  _538
REMARK  223  A    between atoms: _537  and  _540
REMARK  224  A    between atoms: _540  and  _541
REMARK  225  A    between atoms: _541  and  _542
REMARK                            x       y       z     vdW  Elec       q    Type
REMARK                         _______ _______ _______ _____ _____    ______ ____
ROOT
ATOM      1  C   LEU A   1      19.165  36.012  61.680  0.00  0.00    +0.238 C 
ATOM      2  O   LEU A   1      18.107  36.365  62.200  0.00  0.00    -0.274 OA
ATOM      3  N   ASN A   2      19.294  34.882  60.988  0.00  0.00    -0.298 N 
ATOM      4  H   ASN A   2      20.197  34.672  60.517  0.00  0.00    +0.150 HD
ENDROOT
BRANCH   1   5
ATOM      5  CA  LEU A   1      20.416  36.866  61.804  0.00  0.00    +0.145 C 
BRANCH   5   6
ATOM      6  N   LEU A   1      21.624  36.054  61.660  0.00  0.00    -0.238 NA
ATOM      7  H   LEU A   1      22.225  36.173  60.820  0.00  0.00    +0.142 HD
ENDBRANCH   5   6
BRANCH   5   8
ATOM      8  CB  LEU A   1      20.393  38.020  60.784  0.00  0.00    +0.026 C 
BRANCH   8   9
ATOM      9  CG  LEU A   1      21.368  39.193  61.074  0.00  0.00    +0.002 C 
ATOM     10  CD2 LEU A   1      20.990  39.922  62.387  0.00  0.00    +0.000 C 
ATOM     11  CD1 LEU A   1      21.381  40.170  59.918  0.00  0.00    +0.000 C 
ENDBRANCH   8   9
ENDBRANCH   5   8
ENDBRANCH   1   5
BRANCH   3  12
ATOM     12  CA  ASN A   2      18.201  33.940  60.879  0.00  0.00    +0.146 C 
BRANCH  12  13
ATOM     13  C   ASN A   2      18.074  33.019  62.090  0.00  0.00    +0.227 C 
ATOM     14  O   ASN A   2      16.981  32.658  62.473  0.00  0.00    -0.286 OA
ENDBRANCH  12  13
BRANCH  12  15
ATOM     15  CB  ASN A   2      18.285  33.134  59.574  0.00  0.00    +0.112 C 
BRANCH  15  16
ATOM     16  CG  ASN A   2      17.537  33.800  58.431  0.00  0.00    +0.222 C 
ATOM     17  ND2 ASN A   2      16.235  33.612  58.397  0.00  0.00    -0.329 N 
ATOM     18 HD21 ASN A   2      15.774  33.031  59.126  0.00  0.00    +0.145 HD
ATOM     19 HD22 ASN A   2      15.667  34.045  57.641  0.00  0.00    +0.145 HD
ATOM     20  OD1 ASN A   2      18.137  34.486  57.584  0.00  0.00    -0.275 OA
ENDBRANCH  15  16
ENDBRANCH  12  15
ENDBRANCH   3  12
TORSDOF 8
REMARK  Name = ../refined-set-2016/3f8f/3f8f_pocket.pdb
REMARK  225 active torsions:
REMARK  status: ('A' for Active; 'I' for Inactive)
REMARK    1  A    between atoms: _1  and  _3
REMARK    2  A    between atoms: _3  and  _4
REMARK    3  A    between atoms: _3  and  _6
REMARK    4  A    between atoms: _6  and  _7
REMARK    5  A    between atoms: _11  and  _12
REMARK    6  A    between atoms: _17  and  _19
REMARK    7  A    between atoms: _19  and  _20
REMARK    8  A    between atoms: _19  and  _22
REMARK    9  A    between atoms: _22  and  _23
REMARK   10  A    between atoms: _23  and  _24
REMARK   11  A    between atoms: _27  and  _29
REMARK   12  A    between atoms: _29  and  _30
REMARK   13  A    between atoms: _29  and  _32
REMARK   14  A    between atoms: _32  and  _33
REMARK   15  A    between atoms: _33  and  _34
REMARK   16  A    between atoms: _36  and  _38
REMARK   17  A    between atoms: _38  and  _39
REMARK   18  A    between atoms: _38  and  _41
REMARK   19  A    between atoms: _41  and  _42
REMARK   20  A    between atoms: _45  and  _47
REMARK   21  A    between atoms: _47  and  _48
REMARK   22  A    between atoms: _47  and  _50
REMARK   23  A    between atoms: _50  and  _51
REMARK   24  A    between atoms: _51  and  _52
REMARK   25  A    between atoms: _52  and  _53
REMARK   26  A    between atoms: _62  and  _64
REMARK   27  A    between atoms: _64  and  _65
REMARK   28  A    between atoms: _68  and  _70
REMARK   29  A    between atoms: _70  and  _71
REMARK   30  A    between atoms: _70  and  _73
REMARK   31  A    between atoms: _73  and  _74
REMARK   32  A    between atoms: _74  and  _75
REMARK   33  A    between atoms: _80  and  _82
REMARK   34  A    between atoms: _82  and  _83
REMARK   35  A    between atoms: _82  and  _85
REMARK   36  A    between atoms: _85  and  _86
REMARK   37  A    between atoms: _91  and  _93
REMARK   38  A    between atoms: _93  and  _94
REMARK   39  A    between atoms: _93  and  _96
REMARK   40  A    between atoms: _99  and  _101
REMARK   41  A    between atoms: _101  and  _102
REMARK   42  A    between atoms: _101  and  _104
REMARK   43  A    between atoms: _104  and  _105
REMARK   44  A    between atoms: _108  and  _110
REMARK   45  A    between atoms: _110  and  _111
REMARK   46  A    between atoms: _110  and  _113
REMARK   47  A    between atoms: _113  and  _114
REMARK   48  A    between atoms: _117  and  _119
REMARK   49  A    between atoms: _119  and  _120
REMARK   50  A    between atoms: _119  and  _122
REMARK   51  A    between atoms: _122  and  _123
REMARK   52  A    between atoms: _128  and  _130
REMARK   53  A    between atoms: _130  and  _131
REMARK   54  A    between atoms: _130  and  _133
REMARK   55  A    between atoms: _133  and  _134
REMARK   56  A    between atoms: _134  and  _135
REMARK   57  A    between atoms: _135  and  _136
REMARK   58  A    between atoms: _136  and  _137
REMARK   59  A    between atoms: _141  and  _143
REMARK   60  A    between atoms: _143  and  _144
REMARK   61  A    between atoms: _146  and  _148
REMARK   62  A    between atoms: _148  and  _149
REMARK   63  A    between atoms: _148  and  _151
REMARK   64  A    between atoms: _151  and  _152
REMARK   65  A    between atoms: _157  and  _159
REMARK   66  A    between atoms: _159  and  _160
REMARK   67  A    between atoms: _159  and  _162
REMARK   68  A    between atoms: _162  and  _163
REMARK   69  A    between atoms: _163  and  _164
REMARK   70  A    between atoms: _167  and  _169
REMARK   71  A    between atoms: _169  and  _170
REMARK   72  A    between atoms: _169  and  _172
REMARK   73  A    between atoms: _172  and  _173
REMARK   74  A    between atoms: _178  and  _180
REMARK   75  A    between atoms: _180  and  _181
REMARK   76  A    between atoms: _180  and  _183
REMARK   77  A    between atoms: _183  and  _184
REMARK   78  A    between atoms: _184  and  _185
REMARK   79  A    between atoms: _187  and  _189
REMARK   80  A    between atoms: _189  and  _190
REMARK   81  A    between atoms: _189  and  _192
REMARK   82  A    between atoms: _192  and  _193
REMARK   83  A    between atoms: _193  and  _194
REMARK   84  A    between atoms: _194  and  _195
REMARK   85  A    between atoms: _204  and  _206
REMARK   86  A    between atoms: _206  and  _207
REMARK   87  A    between atoms: _206  and  _209
REMARK   88  A    between atoms: _209  and  _210
REMARK   89  A    between atoms: _213  and  _215
REMARK   90  A    between atoms: _215  and  _216
REMARK   91  A    between atoms: _219  and  _221
REMARK   92  A    between atoms: _221  and  _222
REMARK   93  A    between atoms: _221  and  _224
REMARK   94  A    between atoms: _224  and  _225
REMARK   95  A    between atoms: _231  and  _233
REMARK   96  A    between atoms: _233  and  _234
REMARK   97  A    between atoms: _233  and  _236
REMARK   98  A    between atoms: _236  and  _237
REMARK   99  A    between atoms: _237  and  _238
REMARK  100  A    between atoms: _241  and  _243
REMARK  101  A    between atoms: _243  and  _244
REMARK  102  A    between atoms: _243  and  _246
REMARK  103  A    between atoms: _246  and  _247
REMARK  104  A    between atoms: _249  and  _251
REMARK  105  A    between atoms: _251  and  _252
REMARK  106  A    between atoms: _251  and  _254
REMARK  107  A    between atoms: _254  and  _255
REMARK  108  A    between atoms: _265  and  _267
REMARK  109  A    between atoms: _267  and  _268
REMARK  110  A    between atoms: _267  and  _270
REMARK  111  A    between atoms: _270  and  _271
REMARK  112  A    between atoms: _273  and  _275
REMARK  113  A    between atoms: _275  and  _276
REMARK  114  A    between atoms: _275  and  _278
REMARK  115  A    between atoms: _281  and  _283
REMARK  116  A    between atoms: _283  and  _284
REMARK  117  A    between atoms: _283  and  _286
REMARK  118  A    between atoms: _286  and  _287
REMARK  119  A    between atoms: _290  and  _292
REMARK  120  A    between atoms: _292  and  _293
REMARK  121  A    between atoms: _292  and  _295
REMARK  122  A    between atoms: _295  and  _296
REMARK  123  A    between atoms: _299  and  _301
REMARK  124  A    between atoms: _301  and  _302
REMARK  125  A    between atoms: _301  and  _304
REMARK  126  A    between atoms: _304  and  _305
REMARK  127  A    between atoms: _305  and  _306
REMARK  128  A    between atoms: _309  and  _311
REMARK  129  A    between atoms: _311  and  _312
REMARK  130  A    between atoms: _311  and  _314
REMARK  131  A    between atoms: _314  and  _315
REMARK  132  A    between atoms: _315  and  _316
REMARK  133  A    between atoms: _318  and  _320
REMARK  134  A    between atoms: _320  and  _321
REMARK  135  A    between atoms: _320  and  _323
REMARK  136  A    between atoms: _323  and  _324
REMARK  137  A    between atoms: _327  and  _329
REMARK  138  A    between atoms: _329  and  _330
REMARK  139  A    between atoms: _329  and  _332
REMARK  140  A    between atoms: _332  and  _333
REMARK  141  A    between atoms: _333  and  _334
REMARK  142  A    between atoms: _334  and  _335
REMARK  143  A    between atoms: _344  and  _346
REMARK  144  A    between atoms: _346  and  _347
REMARK  145  A    between atoms: _350  and  _352
REMARK  146  A    between atoms: _352  and  _353
REMARK  147  A    between atoms: _352  and  _355
REMARK  148  A    between atoms: _355  and  _356
REMARK  149  A    between atoms: _356  and  _357
REMARK  150  A    between atoms: _362  and  _364
REMARK  151  A    between atoms: _364  and  _365
REMARK  152  A    between atoms: _364  and  _367
REMARK  153  A    between atoms: _367  and  _368
REMARK  154  A    between atoms: _373  and  _375
REMARK  155  A    between atoms: _375  and  _376
REMARK  156  A    between atoms: _375  and  _378
REMARK  157  A    between atoms: _381  and  _383
REMARK  158  A    between atoms: _383  and  _384
REMARK  159  A    between atoms: _383  and  _386
REMARK  160  A    between atoms: _386  and  _387
REMARK  161  A    between atoms: _390  and  _392
REMARK  162  A    between atoms: _392  and  _393
REMARK  163  A    between atoms: _392  and  _395
REMARK  164  A    between atoms: _395  and  _396
REMARK  165  A    between atoms: _399  and  _401
REMARK  166  A    between atoms: _401  and  _402
REMARK  167  A    between atoms: _401  and  _404
REMARK  168  A    between atoms: _404  and  _405
REMARK  169  A    between atoms: _410  and  _412
REMARK  170  A    between atoms: _412  and  _413
REMARK  171  A    between atoms: _412  and  _415
REMARK  172  A    between atoms: _415  and  _416
REMARK  173  A    between atoms: _421  and  _423
REMARK  174  A    between atoms: _423  and  _424
REMARK  175  A    between atoms: _423  and  _426
REMARK  176  A    between atoms: _426  and  _427
REMARK  177  A    between atoms: _427  and  _428
REMARK  178  A    between atoms: _430  and  _432
REMARK  179  A    between atoms: _432  and  _433
REMARK  180  A    between atoms: _432  and  _435
REMARK  181  A    between atoms: _435  and  _436
REMARK  182  A    between atoms: _439  and  _441
REMARK  183  A    between atoms: _441  and  _442
REMARK  184  A    between atoms: _445  and  _447
REMARK  185  A    between atoms: _447  and  _448
REMARK  186  A    between atoms: _447  and  _450
REMARK  187  A    between atoms: _450  and  _451
REMARK  188  A    between atoms: _457  and  _459
REMARK  189  A    between atoms: _459  and  _460
REMARK  190  A    between atoms: _459  and  _462
REMARK  191  A    between atoms: _462  and  _463
REMARK  192  A    between atoms: _463  and  _464
REMARK  193  A    between atoms: _467  and  _469
REMARK  194  A    between atoms: _469  and  _470
REMARK  195  A    between atoms: _469  and  _472
REMARK  196  A    between atoms: _472  and  _473
REMARK  197  A    between atoms: _475  and  _477
REMARK  198  A    between atoms: _477  and  _478
REMARK  199  A    between atoms: _477  and  _480
REMARK  200  A    between atoms: _480  and  _481
REMARK  201  A    between atoms: _491  and  _493
REMARK  202  A    between atoms: _493  and  _494
REMARK  203  A    between atoms: _493  and  _496
REMARK  204  A    between atoms: _496  and  _497
REMARK  205  A    between atoms: _499  and  _501
REMARK  206  A    between atoms: _501  and  _502
REMARK  207  A    between atoms: _501  and  _504
REMARK  208  A    between atoms: _507  and  _509
REMARK  209  A    between atoms: _509  and  _510
REMARK  210  A    between atoms: _509  and  _512
REMARK  211  A    between atoms: _512  and  _513
REMARK  212  A    between atoms: _516  and  _518
REMARK  213  A    between atoms: _518  and  _519
REMARK  214  A    between atoms: _518  and  _521
REMARK  215  A    between atoms: _521  and  _522
REMARK  216  A    between atoms: _525  and  _527
REMARK  217  A    between atoms: _527  and  _528
REMARK  218  A    between atoms: _527  and  _530
REMARK  219  A    between atoms: _530  and  _531
REMARK  220  A    between atoms: _531  and  _532
REMARK  221  A    between atoms: _535  and  _537
REMARK  222  A    between atoms: _537  and  _538
REMARK  223  A    between atoms: _537  and  _540
REMARK  224  A    between atoms: _540  and  _541
REMARK  225  A    between atoms: _541  and  _542
REMARK                            x       y       z     vdW  Elec       q    Type
REMARK                         _______ _______ _______ _____ _____    ______ ____
ROOT
ATOM      1  CG  LYS A   1      13.424  35.832  61.922  0.00  0.00    -0.000 C 
ENDROOT
BRANCH   1   2
ATOM      2  CB  LYS A   1      14.878  35.680  62.458  0.00  0.00    +0.025 C 
BRANCH   2   3
ATOM      3  CA  LYS A   1      14.974  35.554  63.994  0.00  0.00    +0.133 C 
BRANCH   3   4
ATOM      4  N   LYS A   1      16.369  35.360  64.422  0.00  0.00    -0.239 NA
ATOM      5  H   LYS A   1      17.111  35.238  63.703  0.00  0.00    +0.142 HD
ENDBRANCH   3   4
BRANCH   3   6
ATOM      6  C   LYS A   1      14.074  34.417  64.491  0.00  0.00    +0.224 C 
ATOM      7  O   LYS A   1      12.872  34.624  64.750  0.00  0.00    -0.287 OA
ENDBRANCH   3   6
ENDBRANCH   2   3
ENDBRANCH   1   2
BRANCH   1   8
ATOM      8  CD  LYS A   1      13.385  35.860  60.372  0.00  0.00    -0.024 C 
BRANCH   8   9
ATOM      9  CE  LYS A   1      11.944  36.089  59.852  0.00  0.00    -0.086 C 
BRANCH   9  10
ATOM     10  NZ  LYS A   1      11.727  35.493  58.479  0.00  0.00    +0.380 N 
ATOM     11  HZ1 LYS A   1      11.897  34.468  58.517  0.00  0.00    -0.089 HD
ATOM     12  HZ2 LYS A   1      10.749  35.672  58.175  0.00  0.00    -0.089 HD
ATOM     13  HZ3 LYS A   1      12.387  35.930  57.804  0.00  0.00    -0.089 HD
ENDBRANCH   9  10
ENDBRANCH   8   9
ENDBRANCH   1   8
TORSDOF 7
REMARK  Name = ../refined-set-2016/3f8f/3f8f_pocket.pdb
REMARK  225 active torsions:
REMARK  status: ('A' for Active; 'I' for Inactive)
REMARK    1  A    between atoms: _1  and  _3
REMARK    2  A    between atoms: _3  and  _4
REMARK    3  A    between atoms: _3  and  _6
REMARK    4  A    between atoms: _6  and  _7
REMARK    5  A    between atoms: _11  and  _12
REMARK    6  A    between atoms: _17  and  _19
REMARK    7  A    between atoms: _19  and  _20
REMARK    8  A    between atoms: _19  and  _22
REMARK    9  A    between atoms: _22  and  _23
REMARK   10  A    between atoms: _23  and  _24
REMARK   11  A    between atoms: _27  and  _29
REMARK   12  A    between atoms: _29  and  _30
REMARK   13  A    between atoms: _29  and  _32
REMARK   14  A    between atoms: _32  and  _33
REMARK   15  A    between atoms: _33  and  _34
REMARK   16  A    between atoms: _36  and  _38
REMARK   17  A    between atoms: _38  and  _39
REMARK   18  A    between atoms: _38  and  _41
REMARK   19  A    between atoms: _41  and  _42
REMARK   20  A    between atoms: _45  and  _47
REMARK   21  A    between atoms: _47  and  _48
REMARK   22  A    between atoms: _47  and  _50
REMARK   23  A    between atoms: _50  and  _51
REMARK   24  A    between atoms: _51  and  _52
REMARK   25  A    between atoms: _52  and  _53
REMARK   26  A    between atoms: _62  and  _64
REMARK   27  A    between atoms: _64  and  _65
REMARK   28  A    between atoms: _68  and  _70
REMARK   29  A    between atoms: _70  and  _71
REMARK   30  A    between atoms: _70  and  _73
REMARK   31  A    between atoms: _73  and  _74
REMARK   32  A    between atoms: _74  and  _75
REMARK   33  A    between atoms: _80  and  _82
REMARK   34  A    between atoms: _82  and  _83
REMARK   35  A    between atoms: _82  and  _85
REMARK   36  A    between atoms: _85  and  _86
REMARK   37  A    between atoms: _91  and  _93
REMARK   38  A    between atoms: _93  and  _94
REMARK   39  A    between atoms: _93  and  _96
REMARK   40  A    between atoms: _99  and  _101
REMARK   41  A    between atoms: _101  and  _102
REMARK   42  A    between atoms: _101  and  _104
REMARK   43  A    between atoms: _104  and  _105
REMARK   44  A    between atoms: _108  and  _110
REMARK   45  A    between atoms: _110  and  _111
REMARK   46  A    between atoms: _110  and  _113
REMARK   47  A    between atoms: _113  and  _114
REMARK   48  A    between atoms: _117  and  _119
REMARK   49  A    between atoms: _119  and  _120
REMARK   50  A    between atoms: _119  and  _122
REMARK   51  A    between atoms: _122  and  _123
REMARK   52  A    between atoms: _128  and  _130
REMARK   53  A    between atoms: _130  and  _131
REMARK   54  A    between atoms: _130  and  _133
REMARK   55  A    between atoms: _133  and  _134
REMARK   56  A    between atoms: _134  and  _135
REMARK   57  A    between atoms: _135  and  _136
REMARK   58  A    between atoms: _136  and  _137
REMARK   59  A    between atoms: _141  and  _143
REMARK   60  A    between atoms: _143  and  _144
REMARK   61  A    between atoms: _146  and  _148
REMARK   62  A    between atoms: _148  and  _149
REMARK   63  A    between atoms: _148  and  _151
REMARK   64  A    between atoms: _151  and  _152
REMARK   65  A    between atoms: _157  and  _159
REMARK   66  A    between atoms: _159  and  _160
REMARK   67  A    between atoms: _159  and  _162
REMARK   68  A    between atoms: _162  and  _163
REMARK   69  A    between atoms: _163  and  _164
REMARK   70  A    between atoms: _167  and  _169
REMARK   71  A    between atoms: _169  and  _170
REMARK   72  A    between atoms: _169  and  _172
REMARK   73  A    between atoms: _172  and  _173
REMARK   74  A    between atoms: _178  and  _180
REMARK   75  A    between atoms: _180  and  _181
REMARK   76  A    between atoms: _180  and  _183
REMARK   77  A    between atoms: _183  and  _184
REMARK   78  A    between atoms: _184  and  _185
REMARK   79  A    between atoms: _187  and  _189
REMARK   80  A    between atoms: _189  and  _190
REMARK   81  A    between atoms: _189  and  _192
REMARK   82  A    between atoms: _192  and  _193
REMARK   83  A    between atoms: _193  and  _194
REMARK   84  A    between atoms: _194  and  _195
REMARK   85  A    between atoms: _204  and  _206
REMARK   86  A    between atoms: _206  and  _207
REMARK   87  A    between atoms: _206  and  _209
REMARK   88  A    between atoms: _209  and  _210
REMARK   89  A    between atoms: _213  and  _215
REMARK   90  A    between atoms: _215  and  _216
REMARK   91  A    between atoms: _219  and  _221
REMARK   92  A    between atoms: _221  and  _222
REMARK   93  A    between atoms: _221  and  _224
REMARK   94  A    between atoms: _224  and  _225
REMARK   95  A    between atoms: _231  and  _233
REMARK   96  A    between atoms: _233  and  _234
REMARK   97  A    between atoms: _233  and  _236
REMARK   98  A    between atoms: _236  and  _237
REMARK   99  A    between atoms: _237  and  _238
REMARK  100  A    between atoms: _241  and  _243
REMARK  101  A    between atoms: _243  and  _244
REMARK  102  A    between atoms: _243  and  _246
REMARK  103  A    between atoms: _246  and  _247
REMARK  104  A    between atoms: _249  and  _251
REMARK  105  A    between atoms: _251  and  _252
REMARK  106  A    between atoms: _251  and  _254
REMARK  107  A    between atoms: _254  and  _255
REMARK  108  A    between atoms: _265  and  _267
REMARK  109  A    between atoms: _267  and  _268
REMARK  110  A    between atoms: _267  and  _270
REMARK  111  A    between atoms: _270  and  _271
REMARK  112  A    between atoms: _273  and  _275
REMARK  113  A    between atoms: _275  and  _276
REMARK  114  A    between atoms: _275  and  _278
REMARK  115  A    between atoms: _281  and  _283
REMARK  116  A    between atoms: _283  and  _284
REMARK  117  A    between atoms: _283  and  _286
REMARK  118  A    between atoms: _286  and  _287
REMARK  119  A    between atoms: _290  and  _292
REMARK  120  A    between atoms: _292  and  _293
REMARK  121  A    between atoms: _292  and  _295
REMARK  122  A    between atoms: _295  and  _296
REMARK  123  A    between atoms: _299  and  _301
REMARK  124  A    between atoms: _301  and  _302
REMARK  125  A    between atoms: _301  and  _304
REMARK  126  A    between atoms: _304  and  _305
REMARK  127  A    between atoms: _305  and  _306
REMARK  128  A    between atoms: _309  and  _311
REMARK  129  A    between atoms: _311  and  _312
REMARK  130  A    between atoms: _311  and  _314
REMARK  131  A    between atoms: _314  and  _315
REMARK  132  A    between atoms: _315  and  _316
REMARK  133  A    between atoms: _318  and  _320
REMARK  134  A    between atoms: _320  and  _321
REMARK  135  A    between atoms: _320  and  _323
REMARK  136  A    between atoms: _323  and  _324
REMARK  137  A    between atoms: _327  and  _329
REMARK  138  A    between atoms: _329  and  _330
REMARK  139  A    between atoms: _329  and  _332
REMARK  140  A    between atoms: _332  and  _333
REMARK  141  A    between atoms: _333  and  _334
REMARK  142  A    between atoms: _334  and  _335
REMARK  143  A    between atoms: _344  and  _346
REMARK  144  A    between atoms: _346  and  _347
REMARK  145  A    between atoms: _350  and  _352
REMARK  146  A    between atoms: _352  and  _353
REMARK  147  A    between atoms: _352  and  _355
REMARK  148  A    between atoms: _355  and  _356
REMARK  149  A    between atoms: _356  and  _357
REMARK  150  A    between atoms: _362  and  _364
REMARK  151  A    between atoms: _364  and  _365
REMARK  152  A    between atoms: _364  and  _367
REMARK  153  A    between atoms: _367  and  _368
REMARK  154  A    between atoms: _373  and  _375
REMARK  155  A    between atoms: _375  and  _376
REMARK  156  A    between atoms: _375  and  _378
REMARK  157  A    between atoms: _381  and  _383
REMARK  158  A    between atoms: _383  and  _384
REMARK  159  A    between atoms: _383  and  _386
REMARK  160  A    between atoms: _386  and  _387
REMARK  161  A    between atoms: _390  and  _392
REMARK  162  A    between atoms: _392  and  _393
REMARK  163  A    between atoms: _392  and  _395
REMARK  164  A    between atoms: _395  and  _396
REMARK  165  A    between atoms: _399  and  _401
REMARK  166  A    between atoms: _401  and  _402
REMARK  167  A    between atoms: _401  and  _404
REMARK  168  A    between atoms: _404  and  _405
REMARK  169  A    between atoms: _410  and  _412
REMARK  170  A    between atoms: _412  and  _413
REMARK  171  A    between atoms: _412  and  _415
REMARK  172  A    between atoms: _415  and  _416
REMARK  173  A    between atoms: _421  and  _423
REMARK  174  A    between atoms: _423  and  _424
REMARK  175  A    between atoms: _423  and  _426
REMARK  176  A    between atoms: _426  and  _427
REMARK  177  A    between atoms: _427  and  _428
REMARK  178  A    between atoms: _430  and  _432
REMARK  179  A    between atoms: _432  and  _433
REMARK  180  A    between atoms: _432  and  _435
REMARK  181  A    between atoms: _435  and  _436
REMARK  182  A    between atoms: _439  and  _441
REMARK  183  A    between atoms: _441  and  _442
REMARK  184  A    between atoms: _445  and  _447
REMARK  185  A    between atoms: _447  and  _448
REMARK  186  A    between atoms: _447  and  _450
REMARK  187  A    between atoms: _450  and  _451
REMARK  188  A    between atoms: _457  and  _459
REMARK  189  A    between atoms: _459  and  _460
REMARK  190  A    between atoms: _459  and  _462
REMARK  191  A    between atoms: _462  and  _463
REMARK  192  A    between atoms: _463  and  _464
REMARK  193  A    between atoms: _467  and  _469
REMARK  194  A    between atoms: _469  and  _470
REMARK  195  A    between atoms: _469  and  _472
REMARK  196  A    between atoms: _472  and  _473
REMARK  197  A    between atoms: _475  and  _477
REMARK  198  A    between atoms: _477  and  _478
REMARK  199  A    between atoms: _477  and  _480
REMARK  200  A    between atoms: _480  and  _481
REMARK  201  A    between atoms: _491  and  _493
REMARK  202  A    between atoms: _493  and  _494
REMARK  203  A    between atoms: _493  and  _496
REMARK  204  A    between atoms: _496  and  _497
REMARK  205  A    between atoms: _499  and  _501
REMARK  206  A    between atoms: _501  and  _502
REMARK  207  A    between atoms: _501  and  _504
REMARK  208  A    between atoms: _507  and  _509
REMARK  209  A    between atoms: _509  and  _510
REMARK  210  A    between atoms: _509  and  _512
REMARK  211  A    between atoms: _512  and  _513
REMARK  212  A    between atoms: _516  and  _518
REMARK  213  A    between atoms: _518  and  _519
REMARK  214  A    between atoms: _518  and  _521
REMARK  215  A    between atoms: _521  and  _522
REMARK  216  A    between atoms: _525  and  _527
REMARK  217  A    between atoms: _527  and  _528
REMARK  218  A    between atoms: _527  and  _530
REMARK  219  A    between atoms: _530  and  _531
REMARK  220  A    between atoms: _531  and  _532
REMARK  221  A    between atoms: _535  and  _537
REMARK  222  A    between atoms: _537  and  _538
REMARK  223  A    between atoms: _537  and  _540
REMARK  224  A    between atoms: _540  and  _541
REMARK  225  A    between atoms: _541  and  _542
REMARK                            x       y       z     vdW  Elec       q    Type
REMARK                         _______ _______ _______ _____ _____    ______ ____
ROOT
ATOM      1  CA  LEU A   7      13.600  45.636  53.561  0.00  0.00    +0.149 C 
ENDROOT
BRANCH   1   3
ATOM      2  C   ARG A   6      12.636  43.518  54.321  0.00  0.00    +0.241 C 
ATOM      3  N   LEU A   7      13.176  44.704  54.606  0.00  0.00    -0.297 N 
ATOM      4  H   LEU A   7      13.300  44.975  55.603  0.00  0.00    +0.150 HD
ATOM      5  O   ARG A   6      12.436  43.131  53.180  0.00  0.00    -0.273 OA
BRANCH   2   6
ATOM      6  CA  ARG A   6      12.270  42.642  55.515  0.00  0.00    +0.149 C 
BRANCH   6   8
ATOM      7  C   MET A   5      14.508  41.946  56.100  0.00  0.00    +0.241 C 
ATOM      8  N   ARG A   6      13.376  42.557  56.444  0.00  0.00    -0.297 N 
ATOM      9  H   ARG A   6      13.286  42.978  57.391  0.00  0.00    +0.150 HD
ATOM     10  O   MET A   5      14.664  41.405  55.004  0.00  0.00    -0.273 OA
BRANCH   7  11
ATOM     11  CA  MET A   5      15.633  41.942  57.144  0.00  0.00    +0.149 C 
BRANCH  11  13
ATOM     12  C   ASN A   4      15.940  44.359  57.193  0.00  0.00    +0.241 C 
ATOM     13  N   MET A   5      15.724  43.220  57.844  0.00  0.00    -0.297 N 
ATOM     14  H   MET A   5      15.617  43.240  58.878  0.00  0.00    +0.150 HD
ATOM     15  O   ASN A   4      16.064  44.419  55.975  0.00  0.00    -0.273 OA
BRANCH  12  16
ATOM     16  CA  ASN A   4      16.032  45.614  58.041  0.00  0.00    +0.158 C 
BRANCH  16  18
ATOM     17  C   GLU A   3      13.663  45.627  58.552  0.00  0.00    +0.241 C 
ATOM     18  N   ASN A   4      14.921  45.744  58.960  0.00  0.00    -0.297 N 
ATOM     19  H   ASN A   4      15.113  45.934  59.964  0.00  0.00    +0.150 HD
ATOM     20  O   GLU A   3      13.360  45.451  57.366  0.00  0.00    -0.273 OA
BRANCH  17  21
ATOM     21  CA  GLU A   3      12.569  45.722  59.650  0.00  0.00    +0.149 C 
BRANCH  21  23
ATOM     22  C   HIS A   2      13.056  43.508  60.611  0.00  0.00    +0.241 C 
ATOM     23  N   GLU A   3      12.836  44.816  60.773  0.00  0.00    -0.297 N 
ATOM     24  H   GLU A   3      12.855  45.209  61.736  0.00  0.00    +0.150 HD
ATOM     25  O   HIS A   2      12.938  42.939  59.536  0.00  0.00    -0.273 OA
BRANCH  22  26
ATOM     26  CA  HIS A   2      13.470  42.726  61.870  0.00  0.00    +0.155 C 
BRANCH  26  28
ATOM     27  C   GLY A   1      15.744  43.621  62.033  0.00  0.00    +0.240 C 
ATOM     28  N   HIS A   2      14.566  43.367  62.595  0.00  0.00    -0.297 N 
ATOM     29  H   HIS A   2      14.418  43.635  63.589  0.00  0.00    +0.150 HD
ATOM     30  O   GLY A   1      16.016  43.320  60.869  0.00  0.00    -0.274 OA
BRANCH  27  31
ATOM     31  CA  GLY A   1      16.767  44.321  62.914  0.00  0.00    +0.169 C 
BRANCH  31  32
ATOM     32  N   GLY A   1      16.224  45.540  63.523  0.00  0.00    -0.236 NA
ATOM     33  H   GLY A   1      16.242  45.639  64.558  0.00  0.00    +0.142 HD
ENDBRANCH  31  32
ENDBRANCH  27  31
ENDBRANCH  26  28
BRANCH  26  34
ATOM     34  CB  HIS A   2      12.265  42.559  62.786  0.00  0.00    +0.076 C 
BRANCH  34  35
ATOM     35  CG  HIS A   2      12.272  41.290  63.576  0.00  0.00    +0.082 A 
ATOM     36  ND1 HIS A   2      12.687  41.235  64.892  0.00  0.00    -0.227 NA
ATOM     37  CE1 HIS A   2      12.578  39.990  65.333  0.00  0.00    +0.199 A 
ATOM     38  NE2 HIS A   2      12.106  39.239  64.352  0.00  0.00    -0.221 NA
ATOM     39  CD2 HIS A   2      11.906  40.027  63.243  0.00  0.00    +0.115 A 
ENDBRANCH  34  35
ENDBRANCH  26  34
ENDBRANCH  22  26
ENDBRANCH  21  23
BRANCH  21  40
ATOM     40  CB  GLU A   3      12.448  47.165  60.165  0.00  0.00    +0.041 C 
BRANCH  40  41
ATOM     41  CG  GLU A   3      11.906  48.175  59.157  0.00  0.00    +0.116 C 
BRANCH  41  42
ATOM     42  CD  GLU A   3      10.678  47.662  58.383  0.00  0.00    +0.365 C 
ATOM     43  OE2 GLU A   3       9.716  47.172  59.022  0.00  0.00    -0.246 OA
ATOM     44  OE1 GLU A   3      10.683  47.756  57.140  0.00  0.00    -0.246 OA
ENDBRANCH  41  42
ENDBRANCH  40  41
ENDBRANCH  21  40
ENDBRANCH  17  21
ENDBRANCH  16  18
BRANCH  16  45
ATOM     45  CB  ASN A   4      17.366  45.639  58.798  0.00  0.00    +0.114 C 
BRANCH  45  46
ATOM     46  CG  ASN A   4      18.042  46.969  58.723  0.00  0.00    +0.222 C 
ATOM     47  ND2 ASN A   4      17.296  48.030  59.020  0.00  0.00    -0.329 N 
ATOM     48 HD21 ASN A   4      16.299  47.906  59.290  0.00  0.00    +0.145 HD
ATOM     49 HD22 ASN A   4      17.709  48.984  58.982  0.00  0.00    +0.145 HD
ATOM     50  OD1 ASN A   4      19.238  47.061  58.394  0.00  0.00    -0.275 OA
ENDBRANCH  45  46
ENDBRANCH  16  45
ENDBRANCH  12  16
ENDBRANCH  11  13
BRANCH  11  51
ATOM     51  CB  MET A   5      15.445  40.794  58.137  0.00  0.00    +0.041 C 
BRANCH  51  52
ATOM     52  CG  MET A   5      16.692  40.532  59.008  0.00  0.00    +0.060 C 
BRANCH  52  53
ATOM     53  SD  MET A   5      16.614  39.015  59.991  0.00  0.00    -0.139 S 
ATOM     54  CE  MET A   5      16.499  37.780  58.695  0.00  0.00    +0.069 C 
ENDBRANCH  52  53
ENDBRANCH  51  52
ENDBRANCH  11  51
ENDBRANCH   7  11
ENDBRANCH   6   8
BRANCH   6  55
ATOM     55  CB  ARG A   6      11.025  43.177  56.205  0.00  0.00    +0.033 C 
BRANCH  55  56
ATOM     56  CG  ARG A   6       9.811  43.140  55.349  0.00  0.00    +0.045 C 
BRANCH  56  57
ATOM     57  CD  ARG A   6       8.593  43.467  56.130  0.00  0.00    +0.174 C 
BRANCH  57  58
ATOM     58  NE  ARG A   6       8.627  44.836  56.632  0.00  0.00    -0.265 N 
ATOM     59  HE  ARG A   6       8.866  44.981  57.634  0.00  0.00    +0.259 HD
ATOM     60  CZ  ARG A   6       8.371  45.913  55.889  0.00  0.00    +0.342 C 
ATOM     61  NH2 ARG A   6       8.424  47.123  56.432  0.00  0.00    -0.292 N 
ATOM     62 HH21 ARG A   6       8.665  47.232  57.438  0.00  0.00    +0.255 HD
ATOM     63 HH22 ARG A   6       8.224  47.963  55.852  0.00  0.00    +0.255 HD
ATOM     64  NH1 ARG A   6       8.061  45.783  54.606  0.00  0.00    -0.292 N 
ATOM     65 HH11 ARG A   6       8.017  44.838  54.175  0.00  0.00    +0.255 HD
ATOM     66 HH12 ARG A   6       7.862  46.626  54.031  0.00  0.00    +0.255 HD
ENDBRANCH  57  58
ENDBRANCH  56  57
ENDBRANCH  55  56
ENDBRANCH   6  55
ENDBRANCH   2   6
ENDBRANCH   1   3
BRANCH   1  67
ATOM     67  C   LEU A   7      14.702  45.050  52.658  0.00  0.00    +0.241 C 
ATOM     68  N   ALA A   8      15.551  44.188  53.233  0.00  0.00    -0.297 N 
ATOM     69  H   ALA A   8      15.461  43.986  54.249  0.00  0.00    +0.150 HD
ATOM     70  O   LEU A   7      14.777  45.374  51.470  0.00  0.00    -0.273 OA
BRANCH  68  71
ATOM     71  CA  ALA A   8      16.601  43.526  52.463  0.00  0.00    +0.149 C 
ATOM     72  CB  ALA A   8      17.668  42.948  53.384  0.00  0.00    +0.031 C 
BRANCH  71  73
ATOM     73  C   ALA A   8      16.022  42.443  51.562  0.00  0.00    +0.241 C 
ATOM     74  N   PHE A   9      15.070  41.676  52.092  0.00  0.00    -0.297 N 
ATOM     75  H   PHE A   9      14.853  41.761  53.106  0.00  0.00    +0.150 HD
ATOM     76  O   ALA A   8      16.432  42.305  50.398  0.00  0.00    -0.273 OA
BRANCH  74  77
ATOM     77  CA  PHE A   9      14.322  40.715  51.275  0.00  0.00    +0.153 C 
BRANCH  77  78
ATOM     78  C   PHE A   9      13.638  41.408  50.094  0.00  0.00    +0.241 C 
ATOM     79  N   GLU A  10      12.953  42.511  50.376  0.00  0.00    -0.297 N 
ATOM     80  H   GLU A  10      12.915  42.848  51.359  0.00  0.00    +0.150 HD
ATOM     81  O   PHE A   9      13.736  40.951  48.945  0.00  0.00    -0.273 OA
BRANCH  79  82
ATOM     82  CA  GLU A  10      12.250  43.263  49.335  0.00  0.00    +0.149 C 
BRANCH  82  83
ATOM     83  C   GLU A  10      13.212  43.874  48.317  0.00  0.00    +0.241 C 
ATOM     84  N   SER A  11      14.276  44.488  48.803  0.00  0.00    -0.295 N 
ATOM     85  H   SER A  11      14.420  44.515  49.833  0.00  0.00    +0.150 HD
ATOM     86  O   GLU A  10      12.988  43.788  47.120  0.00  0.00    -0.273 OA
BRANCH  84  87
ATOM     87  CA  SER A  11      15.255  45.130  47.930  0.00  0.00    +0.178 C 
BRANCH  87  88
ATOM     88  C   SER A  11      15.819  44.135  46.922  0.00  0.00    +0.243 C 
ATOM     89  N   TRP A  12      16.202  42.970  47.425  0.00  0.00    -0.297 N 
ATOM     90  H   TRP A  12      15.983  42.767  48.421  0.00  0.00    +0.150 HD
ATOM     91  O   SER A  11      15.896  44.422  45.719  0.00  0.00    -0.273 OA
BRANCH  89  92
ATOM     92  CA  TRP A  12      16.912  41.963  46.656  0.00  0.00    +0.153 C 
BRANCH  92  93
ATOM     93  C   TRP A  12      15.967  41.225  45.746  0.00  0.00    +0.241 C 
ATOM     94  N   SER A  13      14.702  41.167  46.157  0.00  0.00    -0.296 N 
ATOM     95  H   SER A  13      14.469  41.527  47.104  0.00  0.00    +0.150 HD
ATOM     96  O   TRP A  12      16.369  40.710  44.696  0.00  0.00    -0.273 OA
BRANCH  94  97
ATOM     97  CA  SER A  13      13.641  40.625  45.343  0.00  0.00    +0.166 C 
BRANCH  97  98
ATOM     98  C   SER A  13      13.409  41.486  44.104  0.00  0.00    +0.229 C 
ATOM     99  O   SER A  13      13.156  40.965  43.014  0.00  0.00    -0.286 OA
ENDBRANCH  97  98
BRANCH  97 100
ATOM    100  CB  SER A  13      12.363  40.526  46.160  0.00  0.00    +0.165 C 
BRANCH 100 101
ATOM    101  OG  SER A  13      11.225  40.465  45.323  0.00  0.00    -0.380 OA
ATOM    102  H   SER A  13      10.410  40.401  45.881  0.00  0.00    +0.211 HD
ENDBRANCH 100 101
ENDBRANCH  97 100
ENDBRANCH  94  97
ENDBRANCH  92  93
BRANCH  92 103
ATOM    103  CB  TRP A  12      17.577  40.965  47.603  0.00  0.00    +0.057 C 
BRANCH 103 104
ATOM    104  CG  TRP A  12      18.984  41.330  47.983  0.00  0.00    -0.002 A 
ATOM    105  CD1 TRP A  12      19.408  41.834  49.180  0.00  0.00    +0.068 A 
ATOM    106  NE1 TRP A  12      20.773  42.039  49.152  0.00  0.00    -0.352 N 
ATOM    107  HE1 TRP A  12      21.344  42.415  49.936  0.00  0.00    +0.166 HD
ATOM    108  CE2 TRP A  12      21.255  41.666  47.921  0.00  0.00    +0.056 A 
ATOM    109  CZ2 TRP A  12      22.564  41.688  47.417  0.00  0.00    +0.017 A 
ATOM    110  CH2 TRP A  12      22.757  41.247  46.133  0.00  0.00    +0.001 A 
ATOM    111  CZ3 TRP A  12      21.688  40.792  45.346  0.00  0.00    +0.000 A 
ATOM    112  CE3 TRP A  12      20.386  40.769  45.845  0.00  0.00    +0.001 A 
ATOM    113  CD2 TRP A  12      20.159  41.213  47.156  0.00  0.00    +0.013 A 
ENDBRANCH 103 104
ENDBRANCH  92 103
ENDBRANCH  89  92
ENDBRANCH  87  88
BRANCH  87 114
ATOM    114  CB  SER A  11      16.380  45.720  48.756  0.00  0.00    +0.166 C 
BRANCH 114 115
ATOM    115  OG  SER A  11      17.222  46.501  47.964  0.00  0.00    -0.380 OA
ATOM    116  H   SER A  11      17.947  46.875  48.525  0.00  0.00    +0.211 HD
ENDBRANCH 114 115
ENDBRANCH  87 114
ENDBRANCH  84  87
ENDBRANCH  82  83
BRANCH  82 117
ATOM    117  CB  GLU A  10      11.376  44.343  49.944  0.00  0.00    +0.041 C 
BRANCH 117 118
ATOM    118  CG  GLU A  10      10.084  43.820  50.572  0.00  0.00    +0.116 C 
BRANCH 118 119
ATOM    119  CD  GLU A  10       9.272  44.919  51.247  0.00  0.00    +0.365 C 
ATOM    120  OE2 GLU A  10       8.400  44.589  52.091  0.00  0.00    -0.246 OA
ATOM    121  OE1 GLU A  10       9.504  46.112  50.934  0.00  0.00    -0.246 OA
ENDBRANCH 118 119
ENDBRANCH 117 118
ENDBRANCH  82 117
ENDBRANCH  79  82
ENDBRANCH  77  78
BRANCH  77 122
ATOM    122  CB  PHE A   9      13.296  39.961  52.117  0.00  0.00    +0.055 C 
BRANCH 122 123
ATOM    123  CG  PHE A   9      12.475  38.977  51.334  0.00  0.00    -0.020 A 
ATOM    124  CD2 PHE A   9      12.896  37.653  51.192  0.00  0.00    -0.004 A 
ATOM    125  CE2 PHE A   9      12.132  36.733  50.460  0.00  0.00    -0.000 A 
ATOM    126  CZ  PHE A   9      10.942  37.137  49.869  0.00  0.00    -0.000 A 
ATOM    127  CE1 PHE A   9      10.513  38.460  50.008  0.00  0.00    -0.000 A 
ATOM    128  CD1 PHE A   9      11.278  39.367  50.736  0.00  0.00    -0.004 A 
ENDBRANCH 122 123
ENDBRANCH  77 122
ENDBRANCH  74  77
ENDBRANCH  71  73
ENDBRANCH  68  71
ENDBRANCH   1  67
BRANCH   1 129
ATOM    129  CB  LEU A   7      14.076  46.936  54.181  0.00  0.00    +0.029 C 
BRANCH 129 130
ATOM    130  CG  LEU A   7      12.997  47.817  54.796  0.00  0.00    +0.002 C 
ATOM    131  CD2 LEU A   7      13.585  48.704  55.864  0.00  0.00    +0.000 C 
ATOM    132  CD1 LEU A   7      12.300  48.651  53.713  0.00  0.00    +0.000 C 
ENDBRANCH 129 130
ENDBRANCH   1 129
TORSDOF 53
REMARK  Name = ../refined-set-2016/3f8f/3f8f_pocket.pdb
REMARK  225 active torsions:
REMARK  status: ('A' for Active; 'I' for Inactive)
REMARK    1  A    between atoms: _1  and  _3
REMARK    2  A    between atoms: _3  and  _4
REMARK    3  A    between atoms: _3  and  _6
REMARK    4  A    between atoms: _6  and  _7
REMARK    5  A    between atoms: _11  and  _12
REMARK    6  A    between atoms: _17  and  _19
REMARK    7  A    between atoms: _19  and  _20
REMARK    8  A    between atoms: _19  and  _22
REMARK    9  A    between atoms: _22  and  _23
REMARK   10  A    between atoms: _23  and  _24
REMARK   11  A    between atoms: _27  and  _29
REMARK   12  A    between atoms: _29  and  _30
REMARK   13  A    between atoms: _29  and  _32
REMARK   14  A    between atoms: _32  and  _33
REMARK   15  A    between atoms: _33  and  _34
REMARK   16  A    between atoms: _36  and  _38
REMARK   17  A    between atoms: _38  and  _39
REMARK   18  A    between atoms: _38  and  _41
REMARK   19  A    between atoms: _41  and  _42
REMARK   20  A    between atoms: _45  and  _47
REMARK   21  A    between atoms: _47  and  _48
REMARK   22  A    between atoms: _47  and  _50
REMARK   23  A    between atoms: _50  and  _51
REMARK   24  A    between atoms: _51  and  _52
REMARK   25  A    between atoms: _52  and  _53
REMARK   26  A    between atoms: _62  and  _64
REMARK   27  A    between atoms: _64  and  _65
REMARK   28  A    between atoms: _68  and  _70
REMARK   29  A    between atoms: _70  and  _71
REMARK   30  A    between atoms: _70  and  _73
REMARK   31  A    between atoms: _73  and  _74
REMARK   32  A    between atoms: _74  and  _75
REMARK   33  A    between atoms: _80  and  _82
REMARK   34  A    between atoms: _82  and  _83
REMARK   35  A    between atoms: _82  and  _85
REMARK   36  A    between atoms: _85  and  _86
REMARK   37  A    between atoms: _91  and  _93
REMARK   38  A    between atoms: _93  and  _94
REMARK   39  A    between atoms: _93  and  _96
REMARK   40  A    between atoms: _99  and  _101
REMARK   41  A    between atoms: _101  and  _102
REMARK   42  A    between atoms: _101  and  _104
REMARK   43  A    between atoms: _104  and  _105
REMARK   44  A    between atoms: _108  and  _110
REMARK   45  A    between atoms: _110  and  _111
REMARK   46  A    between atoms: _110  and  _113
REMARK   47  A    between atoms: _113  and  _114
REMARK   48  A    between atoms: _117  and  _119
REMARK   49  A    between atoms: _119  and  _120
REMARK   50  A    between atoms: _119  and  _122
REMARK   51  A    between atoms: _122  and  _123
REMARK   52  A    between atoms: _128  and  _130
REMARK   53  A    between atoms: _130  and  _131
REMARK   54  A    between atoms: _130  and  _133
REMARK   55  A    between atoms: _133  and  _134
REMARK   56  A    between atoms: _134  and  _135
REMARK   57  A    between atoms: _135  and  _136
REMARK   58  A    between atoms: _136  and  _137
REMARK   59  A    between atoms: _141  and  _143
REMARK   60  A    between atoms: _143  and  _144
REMARK   61  A    between atoms: _146  and  _148
REMARK   62  A    between atoms: _148  and  _149
REMARK   63  A    between atoms: _148  and  _151
REMARK   64  A    between atoms: _151  and  _152
REMARK   65  A    between atoms: _157  and  _159
REMARK   66  A    between atoms: _159  and  _160
REMARK   67  A    between atoms: _159  and  _162
REMARK   68  A    between atoms: _162  and  _163
REMARK   69  A    between atoms: _163  and  _164
REMARK   70  A    between atoms: _167  and  _169
REMARK   71  A    between atoms: _169  and  _170
REMARK   72  A    between atoms: _169  and  _172
REMARK   73  A    between atoms: _172  and  _173
REMARK   74  A    between atoms: _178  and  _180
REMARK   75  A    between atoms: _180  and  _181
REMARK   76  A    between atoms: _180  and  _183
REMARK   77  A    between atoms: _183  and  _184
REMARK   78  A    between atoms: _184  and  _185
REMARK   79  A    between atoms: _187  and  _189
REMARK   80  A    between atoms: _189  and  _190
REMARK   81  A    between atoms: _189  and  _192
REMARK   82  A    between atoms: _192  and  _193
REMARK   83  A    between atoms: _193  and  _194
REMARK   84  A    between atoms: _194  and  _195
REMARK   85  A    between atoms: _204  and  _206
REMARK   86  A    between atoms: _206  and  _207
REMARK   87  A    between atoms: _206  and  _209
REMARK   88  A    between atoms: _209  and  _210
REMARK   89  A    between atoms: _213  and  _215
REMARK   90  A    between atoms: _215  and  _216
REMARK   91  A    between atoms: _219  and  _221
REMARK   92  A    between atoms: _221  and  _222
REMARK   93  A    between atoms: _221  and  _224
REMARK   94  A    between atoms: _224  and  _225
REMARK   95  A    between atoms: _231  and  _233
REMARK   96  A    between atoms: _233  and  _234
REMARK   97  A    between atoms: _233  and  _236
REMARK   98  A    between atoms: _236  and  _237
REMARK   99  A    between atoms: _237  and  _238
REMARK  100  A    between atoms: _241  and  _243
REMARK  101  A    between atoms: _243  and  _244
REMARK  102  A    between atoms: _243  and  _246
REMARK  103  A    between atoms: _246  and  _247
REMARK  104  A    between atoms: _249  and  _251
REMARK  105  A    between atoms: _251  and  _252
REMARK  106  A    between atoms: _251  and  _254
REMARK  107  A    between atoms: _254  and  _255
REMARK  108  A    between atoms: _265  and  _267
REMARK  109  A    between atoms: _267  and  _268
REMARK  110  A    between atoms: _267  and  _270
REMARK  111  A    between atoms: _270  and  _271
REMARK  112  A    between atoms: _273  and  _275
REMARK  113  A    between atoms: _275  and  _276
REMARK  114  A    between atoms: _275  and  _278
REMARK  115  A    between atoms: _281  and  _283
REMARK  116  A    between atoms: _283  and  _284
REMARK  117  A    between atoms: _283  and  _286
REMARK  118  A    between atoms: _286  and  _287
REMARK  119  A    between atoms: _290  and  _292
REMARK  120  A    between atoms: _292  and  _293
REMARK  121  A    between atoms: _292  and  _295
REMARK  122  A    between atoms: _295  and  _296
REMARK  123  A    between atoms: _299  and  _301
REMARK  124  A    between atoms: _301  and  _302
REMARK  125  A    between atoms: _301  and  _304
REMARK  126  A    between atoms: _304  and  _305
REMARK  127  A    between atoms: _305  and  _306
REMARK  128  A    between atoms: _309  and  _311
REMARK  129  A    between atoms: _311  and  _312
REMARK  130  A    between atoms: _311  and  _314
REMARK  131  A    between atoms: _314  and  _315
REMARK  132  A    between atoms: _315  and  _316
REMARK  133  A    between atoms: _318  and  _320
REMARK  134  A    between atoms: _320  and  _321
REMARK  135  A    between atoms: _320  and  _323
REMARK  136  A    between atoms: _323  and  _324
REMARK  137  A    between atoms: _327  and  _329
REMARK  138  A    between atoms: _329  and  _330
REMARK  139  A    between atoms: _329  and  _332
REMARK  140  A    between atoms: _332  and  _333
REMARK  141  A    between atoms: _333  and  _334
REMARK  142  A    between atoms: _334  and  _335
REMARK  143  A    between atoms: _344  and  _346
REMARK  144  A    between atoms: _346  and  _347
REMARK  145  A    between atoms: _350  and  _352
REMARK  146  A    between atoms: _352  and  _353
REMARK  147  A    between atoms: _352  and  _355
REMARK  148  A    between atoms: _355  and  _356
REMARK  149  A    between atoms: _356  and  _357
REMARK  150  A    between atoms: _362  and  _364
REMARK  151  A    between atoms: _364  and  _365
REMARK  152  A    between atoms: _364  and  _367
REMARK  153  A    between atoms: _367  and  _368
REMARK  154  A    between atoms: _373  and  _375
REMARK  155  A    between atoms: _375  and  _376
REMARK  156  A    between atoms: _375  and  _378
REMARK  157  A    between atoms: _381  and  _383
REMARK  158  A    between atoms: _383  and  _384
REMARK  159  A    between atoms: _383  and  _386
REMARK  160  A    between atoms: _386  and  _387
REMARK  161  A    between atoms: _390  and  _392
REMARK  162  A    between atoms: _392  and  _393
REMARK  163  A    between atoms: _392  and  _395
REMARK  164  A    between atoms: _395  and  _396
REMARK  165  A    between atoms: _399  and  _401
REMARK  166  A    between atoms: _401  and  _402
REMARK  167  A    between atoms: _401  and  _404
REMARK  168  A    between atoms: _404  and  _405
REMARK  169  A    between atoms: _410  and  _412
REMARK  170  A    between atoms: _412  and  _413
REMARK  171  A    between atoms: _412  and  _415
REMARK  172  A    between atoms: _415  and  _416
REMARK  173  A    between atoms: _421  and  _423
REMARK  174  A    between atoms: _423  and  _424
REMARK  175  A    between atoms: _423  and  _426
REMARK  176  A    between atoms: _426  and  _427
REMARK  177  A    between atoms: _427  and  _428
REMARK  178  A    between atoms: _430  and  _432
REMARK  179  A    between atoms: _432  and  _433
REMARK  180  A    between atoms: _432  and  _435
REMARK  181  A    between atoms: _435  and  _436
REMARK  182  A    between atoms: _439  and  _441
REMARK  183  A    between atoms: _441  and  _442
REMARK  184  A    between atoms: _445  and  _447
REMARK  185  A    between atoms: _447  and  _448
REMARK  186  A    between atoms: _447  and  _450
REMARK  187  A    between atoms: _450  and  _451
REMARK  188  A    between atoms: _457  and  _459
REMARK  189  A    between atoms: _459  and  _460
REMARK  190  A    between atoms: _459  and  _462
REMARK  191  A    between atoms: _462  and  _463
REMARK  192  A    between atoms: _463  and  _464
REMARK  193  A    between atoms: _467  and  _469
REMARK  194  A    between atoms: _469  and  _470
REMARK  195  A    between atoms: _469  and  _472
REMARK  196  A    between atoms: _472  and  _473
REMARK  197  A    between atoms: _475  and  _477
REMARK  198  A    between atoms: _477  and  _478
REMARK  199  A    between atoms: _477  and  _480
REMARK  200  A    between atoms: _480  and  _481
REMARK  201  A    between atoms: _491  and  _493
REMARK  202  A    between atoms: _493  and  _494
REMARK  203  A    between atoms: _493  and  _496
REMARK  204  A    between atoms: _496  and  _497
REMARK  205  A    between atoms: _499  and  _501
REMARK  206  A    between atoms: _501  and  _502
REMARK  207  A    between atoms: _501  and  _504
REMARK  208  A    between atoms: _507  and  _509
REMARK  209  A    between atoms: _509  and  _510
REMARK  210  A    between atoms: _509  and  _512
REMARK  211  A    between atoms: _512  and  _513
REMARK  212  A    between atoms: _516  and  _518
REMARK  213  A    between atoms: _518  and  _519
REMARK  214  A    between atoms: _518  and  _521
REMARK  215  A    between atoms: _521  and  _522
REMARK  216  A    between atoms: _525  and  _527
REMARK  217  A    between atoms: _527  and  _528
REMARK  218  A    between atoms: _527  and  _530
REMARK  219  A    between atoms: _530  and  _531
REMARK  220  A    between atoms: _531  and  _532
REMARK  221  A    between atoms: _535  and  _537
REMARK  222  A    between atoms: _537  and  _538
REMARK  223  A    between atoms: _537  and  _540
REMARK  224  A    between atoms: _540  and  _541
REMARK  225  A    between atoms: _541  and  _542
REMARK                            x       y       z     vdW  Elec       q    Type
REMARK                         _______ _______ _______ _____ _____    ______ ____
ROOT
ATOM      1  C   VAL A   1      16.890  41.836  41.123  0.00  0.00    +0.238 C 
ATOM      2  N   ASP A   2      16.354  40.761  41.699  0.00  0.00    -0.298 N 
ATOM      3  H   ASP A   2      16.146  40.789  42.718  0.00  0.00    +0.150 HD
ATOM      4  O   VAL A   1      17.179  41.883  39.932  0.00  0.00    -0.274 OA
ENDROOT
BRANCH   1   5
ATOM      5  CA  VAL A   1      17.133  43.040  42.032  0.00  0.00    +0.145 C 
BRANCH   5   6
ATOM      6  CB  VAL A   1      18.350  42.754  42.951  0.00  0.00    +0.025 C 
ATOM      7  CG2 VAL A   1      18.880  44.047  43.553  0.00  0.00    +0.002 C 
ATOM      8  CG1 VAL A   1      19.443  42.039  42.184  0.00  0.00    +0.002 C 
ENDBRANCH   5   6
BRANCH   5   9
ATOM      9  N   VAL A   1      15.924  43.368  42.810  0.00  0.00    -0.238 NA
ATOM     10  H   VAL A   1      15.992  43.450  43.845  0.00  0.00    +0.142 HD
ENDBRANCH   5   9
ENDBRANCH   1   5
BRANCH   2  11
ATOM     11  CA  ASP A   2      16.047  39.537  40.945  0.00  0.00    +0.148 C 
BRANCH  11  12
ATOM     12  C   ASP A   2      15.082  39.780  39.757  0.00  0.00    +0.227 C 
ATOM     13  O   ASP A   2      15.248  39.185  38.691  0.00  0.00    -0.286 OA
ENDBRANCH  11  12
BRANCH  11  14
ATOM     14  CB  ASP A   2      15.467  38.466  41.876  0.00  0.00    +0.142 C 
BRANCH  14  15
ATOM     15  CG  ASP A   2      16.484  37.953  42.882  0.00  0.00    +0.367 C 
ATOM     16  OD2 ASP A   2      16.071  37.404  43.922  0.00  0.00    -0.246 OA
ATOM     17  OD1 ASP A   2      17.702  38.098  42.630  0.00  0.00    -0.246 OA
ENDBRANCH  14  15
ENDBRANCH  11  14
ENDBRANCH   2  11
TORSDOF 7
REMARK  Name = ../refined-set-2016/3f8f/3f8f_pocket.pdb
REMARK  225 active torsions:
REMARK  status: ('A' for Active; 'I' for Inactive)
REMARK    1  A    between atoms: _1  and  _3
REMARK    2  A    between atoms: _3  and  _4
REMARK    3  A    between atoms: _3  and  _6
REMARK    4  A    between atoms: _6  and  _7
REMARK    5  A    between atoms: _11  and  _12
REMARK    6  A    between atoms: _17  and  _19
REMARK    7  A    between atoms: _19  and  _20
REMARK    8  A    between atoms: _19  and  _22
REMARK    9  A    between atoms: _22  and  _23
REMARK   10  A    between atoms: _23  and  _24
REMARK   11  A    between atoms: _27  and  _29
REMARK   12  A    between atoms: _29  and  _30
REMARK   13  A    between atoms: _29  and  _32
REMARK   14  A    between atoms: _32  and  _33
REMARK   15  A    between atoms: _33  and  _34
REMARK   16  A    between atoms: _36  and  _38
REMARK   17  A    between atoms: _38  and  _39
REMARK   18  A    between atoms: _38  and  _41
REMARK   19  A    between atoms: _41  and  _42
REMARK   20  A    between atoms: _45  and  _47
REMARK   21  A    between atoms: _47  and  _48
REMARK   22  A    between atoms: _47  and  _50
REMARK   23  A    between atoms: _50  and  _51
REMARK   24  A    between atoms: _51  and  _52
REMARK   25  A    between atoms: _52  and  _53
REMARK   26  A    between atoms: _62  and  _64
REMARK   27  A    between atoms: _64  and  _65
REMARK   28  A    between atoms: _68  and  _70
REMARK   29  A    between atoms: _70  and  _71
REMARK   30  A    between atoms: _70  and  _73
REMARK   31  A    between atoms: _73  and  _74
REMARK   32  A    between atoms: _74  and  _75
REMARK   33  A    between atoms: _80  and  _82
REMARK   34  A    between atoms: _82  and  _83
REMARK   35  A    between atoms: _82  and  _85
REMARK   36  A    between atoms: _85  and  _86
REMARK   37  A    between atoms: _91  and  _93
REMARK   38  A    between atoms: _93  and  _94
REMARK   39  A    between atoms: _93  and  _96
REMARK   40  A    between atoms: _99  and  _101
REMARK   41  A    between atoms: _101  and  _102
REMARK   42  A    between atoms: _101  and  _104
REMARK   43  A    between atoms: _104  and  _105
REMARK   44  A    between atoms: _108  and  _110
REMARK   45  A    between atoms: _110  and  _111
REMARK   46  A    between atoms: _110  and  _113
REMARK   47  A    between atoms: _113  and  _114
REMARK   48  A    between atoms: _117  and  _119
REMARK   49  A    between atoms: _119  and  _120
REMARK   50  A    between atoms: _119  and  _122
REMARK   51  A    between atoms: _122  and  _123
REMARK   52  A    between atoms: _128  and  _130
REMARK   53  A    between atoms: _130  and  _131
REMARK   54  A    between atoms: _130  and  _133
REMARK   55  A    between atoms: _133  and  _134
REMARK   56  A    between atoms: _134  and  _135
REMARK   57  A    between atoms: _135  and  _136
REMARK   58  A    between atoms: _136  and  _137
REMARK   59  A    between atoms: _141  and  _143
REMARK   60  A    between atoms: _143  and  _144
REMARK   61  A    between atoms: _146  and  _148
REMARK   62  A    between atoms: _148  and  _149
REMARK   63  A    between atoms: _148  and  _151
REMARK   64  A    between atoms: _151  and  _152
REMARK   65  A    between atoms: _157  and  _159
REMARK   66  A    between atoms: _159  and  _160
REMARK   67  A    between atoms: _159  and  _162
REMARK   68  A    between atoms: _162  and  _163
REMARK   69  A    between atoms: _163  and  _164
REMARK   70  A    between atoms: _167  and  _169
REMARK   71  A    between atoms: _169  and  _170
REMARK   72  A    between atoms: _169  and  _172
REMARK   73  A    between atoms: _172  and  _173
REMARK   74  A    between atoms: _178  and  _180
REMARK   75  A    between atoms: _180  and  _181
REMARK   76  A    between atoms: _180  and  _183
REMARK   77  A    between atoms: _183  and  _184
REMARK   78  A    between atoms: _184  and  _185
REMARK   79  A    between atoms: _187  and  _189
REMARK   80  A    between atoms: _189  and  _190
REMARK   81  A    between atoms: _189  and  _192
REMARK   82  A    between atoms: _192  and  _193
REMARK   83  A    between atoms: _193  and  _194
REMARK   84  A    between atoms: _194  and  _195
REMARK   85  A    between atoms: _204  and  _206
REMARK   86  A    between atoms: _206  and  _207
REMARK   87  A    between atoms: _206  and  _209
REMARK   88  A    between atoms: _209  and  _210
REMARK   89  A    between atoms: _213  and  _215
REMARK   90  A    between atoms: _215  and  _216
REMARK   91  A    between atoms: _219  and  _221
REMARK   92  A    between atoms: _221  and  _222
REMARK   93  A    between atoms: _221  and  _224
REMARK   94  A    between atoms: _224  and  _225
REMARK   95  A    between atoms: _231  and  _233
REMARK   96  A    between atoms: _233  and  _234
REMARK   97  A    between atoms: _233  and  _236
REMARK   98  A    between atoms: _236  and  _237
REMARK   99  A    between atoms: _237  and  _238
REMARK  100  A    between atoms: _241  and  _243
REMARK  101  A    between atoms: _243  and  _244
REMARK  102  A    between atoms: _243  and  _246
REMARK  103  A    between atoms: _246  and  _247
REMARK  104  A    between atoms: _249  and  _251
REMARK  105  A    between atoms: _251  and  _252
REMARK  106  A    between atoms: _251  and  _254
REMARK  107  A    between atoms: _254  and  _255
REMARK  108  A    between atoms: _265  and  _267
REMARK  109  A    between atoms: _267  and  _268
REMARK  110  A    between atoms: _267  and  _270
REMARK  111  A    between atoms: _270  and  _271
REMARK  112  A    between atoms: _273  and  _275
REMARK  113  A    between atoms: _275  and  _276
REMARK  114  A    between atoms: _275  and  _278
REMARK  115  A    between atoms: _281  and  _283
REMARK  116  A    between atoms: _283  and  _284
REMARK  117  A    between atoms: _283  and  _286
REMARK  118  A    between atoms: _286  and  _287
REMARK  119  A    between atoms: _290  and  _292
REMARK  120  A    between atoms: _292  and  _293
REMARK  121  A    between atoms: _292  and  _295
REMARK  122  A    between atoms: _295  and  _296
REMARK  123  A    between atoms: _299  and  _301
REMARK  124  A    between atoms: _301  and  _302
REMARK  125  A    between atoms: _301  and  _304
REMARK  126  A    between atoms: _304  and  _305
REMARK  127  A    between atoms: _305  and  _306
REMARK  128  A    between atoms: _309  and  _311
REMARK  129  A    between atoms: _311  and  _312
REMARK  130  A    between atoms: _311  and  _314
REMARK  131  A    between atoms: _314  and  _315
REMARK  132  A    between atoms: _315  and  _316
REMARK  133  A    between atoms: _318  and  _320
REMARK  134  A    between atoms: _320  and  _321
REMARK  135  A    between atoms: _320  and  _323
REMARK  136  A    between atoms: _323  and  _324
REMARK  137  A    between atoms: _327  and  _329
REMARK  138  A    between atoms: _329  and  _330
REMARK  139  A    between atoms: _329  and  _332
REMARK  140  A    between atoms: _332  and  _333
REMARK  141  A    between atoms: _333  and  _334
REMARK  142  A    between atoms: _334  and  _335
REMARK  143  A    between atoms: _344  and  _346
REMARK  144  A    between atoms: _346  and  _347
REMARK  145  A    between atoms: _350  and  _352
REMARK  146  A    between atoms: _352  and  _353
REMARK  147  A    between atoms: _352  and  _355
REMARK  148  A    between atoms: _355  and  _356
REMARK  149  A    between atoms: _356  and  _357
REMARK  150  A    between atoms: _362  and  _364
REMARK  151  A    between atoms: _364  and  _365
REMARK  152  A    between atoms: _364  and  _367
REMARK  153  A    between atoms: _367  and  _368
REMARK  154  A    between atoms: _373  and  _375
REMARK  155  A    between atoms: _375  and  _376
REMARK  156  A    between atoms: _375  and  _378
REMARK  157  A    between atoms: _381  and  _383
REMARK  158  A    between atoms: _383  and  _384
REMARK  159  A    between atoms: _383  and  _386
REMARK  160  A    between atoms: _386  and  _387
REMARK  161  A    between atoms: _390  and  _392
REMARK  162  A    between atoms: _392  and  _393
REMARK  163  A    between atoms: _392  and  _395
REMARK  164  A    between atoms: _395  and  _396
REMARK  165  A    between atoms: _399  and  _401
REMARK  166  A    between atoms: _401  and  _402
REMARK  167  A    between atoms: _401  and  _404
REMARK  168  A    between atoms: _404  and  _405
REMARK  169  A    between atoms: _410  and  _412
REMARK  170  A    between atoms: _412  and  _413
REMARK  171  A    between atoms: _412  and  _415
REMARK  172  A    between atoms: _415  and  _416
REMARK  173  A    between atoms: _421  and  _423
REMARK  174  A    between atoms: _423  and  _424
REMARK  175  A    between atoms: _423  and  _426
REMARK  176  A    between atoms: _426  and  _427
REMARK  177  A    between atoms: _427  and  _428
REMARK  178  A    between atoms: _430  and  _432
REMARK  179  A    between atoms: _432  and  _433
REMARK  180  A    between atoms: _432  and  _435
REMARK  181  A    between atoms: _435  and  _436
REMARK  182  A    between atoms: _439  and  _441
REMARK  183  A    between atoms: _441  and  _442
REMARK  184  A    between atoms: _445  and  _447
REMARK  185  A    between atoms: _447  and  _448
REMARK  186  A    between atoms: _447  and  _450
REMARK  187  A    between atoms: _450  and  _451
REMARK  188  A    between atoms: _457  and  _459
REMARK  189  A    between atoms: _459  and  _460
REMARK  190  A    between atoms: _459  and  _462
REMARK  191  A    between atoms: _462  and  _463
REMARK  192  A    between atoms: _463  and  _464
REMARK  193  A    between atoms: _467  and  _469
REMARK  194  A    between atoms: _469  and  _470
REMARK  195  A    between atoms: _469  and  _472
REMARK  196  A    between atoms: _472  and  _473
REMARK  197  A    between atoms: _475  and  _477
REMARK  198  A    between atoms: _477  and  _478
REMARK  199  A    between atoms: _477  and  _480
REMARK  200  A    between atoms: _480  and  _481
REMARK  201  A    between atoms: _491  and  _493
REMARK  202  A    between atoms: _493  and  _494
REMARK  203  A    between atoms: _493  and  _496
REMARK  204  A    between atoms: _496  and  _497
REMARK  205  A    between atoms: _499  and  _501
REMARK  206  A    between atoms: _501  and  _502
REMARK  207  A    between atoms: _501  and  _504
REMARK  208  A    between atoms: _507  and  _509
REMARK  209  A    between atoms: _509  and  _510
REMARK  210  A    between atoms: _509  and  _512
REMARK  211  A    between atoms: _512  and  _513
REMARK  212  A    between atoms: _516  and  _518
REMARK  213  A    between atoms: _518  and  _519
REMARK  214  A    between atoms: _518  and  _521
REMARK  215  A    between atoms: _521  and  _522
REMARK  216  A    between atoms: _525  and  _527
REMARK  217  A    between atoms: _527  and  _528
REMARK  218  A    between atoms: _527  and  _530
REMARK  219  A    between atoms: _530  and  _531
REMARK  220  A    between atoms: _531  and  _532
REMARK  221  A    between atoms: _535  and  _537
REMARK  222  A    between atoms: _537  and  _538
REMARK  223  A    between atoms: _537  and  _540
REMARK  224  A    between atoms: _540  and  _541
REMARK  225  A    between atoms: _541  and  _542
REMARK                            x       y       z     vdW  Elec       q    Type
REMARK                         _______ _______ _______ _____ _____    ______ ____
ROOT
ATOM      1  CA  ILE A   1      17.769  40.433  36.346  0.00  0.00    +0.133 C 
ENDROOT
BRANCH   1   2
ATOM      2  N   ILE A   1      16.971  41.450  37.031  0.00  0.00    -0.239 NA
ATOM      3  H   ILE A   1      16.821  41.375  38.057  0.00  0.00    +0.142 HD
ENDBRANCH   1   2
BRANCH   1   4
ATOM      4  CB  ILE A   1      18.517  39.510  37.356  0.00  0.00    +0.023 C 
ATOM      5  CG2 ILE A   1      19.133  38.290  36.643  0.00  0.00    +0.002 C 
BRANCH   4   6
ATOM      6  CG1 ILE A   1      19.614  40.310  38.090  0.00  0.00    +0.002 C 
ATOM      7  CD1 ILE A   1      20.174  39.600  39.332  0.00  0.00    +0.000 C 
ENDBRANCH   4   6
ENDBRANCH   1   4
BRANCH   1   8
ATOM      8  C   ILE A   1      16.894  39.627  35.403  0.00  0.00    +0.224 C 
ATOM      9  O   ILE A   1      17.235  39.425  34.249  0.00  0.00    -0.287 OA
ENDBRANCH   1   8
TORSDOF 4
REMARK  Name = ../refined-set-2016/3f8f/3f8f_pocket.pdb
REMARK  225 active torsions:
REMARK  status: ('A' for Active; 'I' for Inactive)
REMARK    1  A    between atoms: _1  and  _3
REMARK    2  A    between atoms: _3  and  _4
REMARK    3  A    between atoms: _3  and  _6
REMARK    4  A    between atoms: _6  and  _7
REMARK    5  A    between atoms: _11  and  _12
REMARK    6  A    between atoms: _17  and  _19
REMARK    7  A    between atoms: _19  and  _20
REMARK    8  A    between atoms: _19  and  _22
REMARK    9  A    between atoms: _22  and  _23
REMARK   10  A    between atoms: _23  and  _24
REMARK   11  A    between atoms: _27  and  _29
REMARK   12  A    between atoms: _29  and  _30
REMARK   13  A    between atoms: _29  and  _32
REMARK   14  A    between atoms: _32  and  _33
REMARK   15  A    between atoms: _33  and  _34
REMARK   16  A    between atoms: _36  and  _38
REMARK   17  A    between atoms: _38  and  _39
REMARK   18  A    between atoms: _38  and  _41
REMARK   19  A    between atoms: _41  and  _42
REMARK   20  A    between atoms: _45  and  _47
REMARK   21  A    between atoms: _47  and  _48
REMARK   22  A    between atoms: _47  and  _50
REMARK   23  A    between atoms: _50  and  _51
REMARK   24  A    between atoms: _51  and  _52
REMARK   25  A    between atoms: _52  and  _53
REMARK   26  A    between atoms: _62  and  _64
REMARK   27  A    between atoms: _64  and  _65
REMARK   28  A    between atoms: _68  and  _70
REMARK   29  A    between atoms: _70  and  _71
REMARK   30  A    between atoms: _70  and  _73
REMARK   31  A    between atoms: _73  and  _74
REMARK   32  A    between atoms: _74  and  _75
REMARK   33  A    between atoms: _80  and  _82
REMARK   34  A    between atoms: _82  and  _83
REMARK   35  A    between atoms: _82  and  _85
REMARK   36  A    between atoms: _85  and  _86
REMARK   37  A    between atoms: _91  and  _93
REMARK   38  A    between atoms: _93  and  _94
REMARK   39  A    between atoms: _93  and  _96
REMARK   40  A    between atoms: _99  and  _101
REMARK   41  A    between atoms: _101  and  _102
REMARK   42  A    between atoms: _101  and  _104
REMARK   43  A    between atoms: _104  and  _105
REMARK   44  A    between atoms: _108  and  _110
REMARK   45  A    between atoms: _110  and  _111
REMARK   46  A    between atoms: _110  and  _113
REMARK   47  A    between atoms: _113  and  _114
REMARK   48  A    between atoms: _117  and  _119
REMARK   49  A    between atoms: _119  and  _120
REMARK   50  A    between atoms: _119  and  _122
REMARK   51  A    between atoms: _122  and  _123
REMARK   52  A    between atoms: _128  and  _130
REMARK   53  A    between atoms: _130  and  _131
REMARK   54  A    between atoms: _130  and  _133
REMARK   55  A    between atoms: _133  and  _134
REMARK   56  A    between atoms: _134  and  _135
REMARK   57  A    between atoms: _135  and  _136
REMARK   58  A    between atoms: _136  and  _137
REMARK   59  A    between atoms: _141  and  _143
REMARK   60  A    between atoms: _143  and  _144
REMARK   61  A    between atoms: _146  and  _148
REMARK   62  A    between atoms: _148  and  _149
REMARK   63  A    between atoms: _148  and  _151
REMARK   64  A    between atoms: _151  and  _152
REMARK   65  A    between atoms: _157  and  _159
REMARK   66  A    between atoms: _159  and  _160
REMARK   67  A    between atoms: _159  and  _162
REMARK   68  A    between atoms: _162  and  _163
REMARK   69  A    between atoms: _163  and  _164
REMARK   70  A    between atoms: _167  and  _169
REMARK   71  A    between atoms: _169  and  _170
REMARK   72  A    between atoms: _169  and  _172
REMARK   73  A    between atoms: _172  and  _173
REMARK   74  A    between atoms: _178  and  _180
REMARK   75  A    between atoms: _180  and  _181
REMARK   76  A    between atoms: _180  and  _183
REMARK   77  A    between atoms: _183  and  _184
REMARK   78  A    between atoms: _184  and  _185
REMARK   79  A    between atoms: _187  and  _189
REMARK   80  A    between atoms: _189  and  _190
REMARK   81  A    between atoms: _189  and  _192
REMARK   82  A    between atoms: _192  and  _193
REMARK   83  A    between atoms: _193  and  _194
REMARK   84  A    between atoms: _194  and  _195
REMARK   85  A    between atoms: _204  and  _206
REMARK   86  A    between atoms: _206  and  _207
REMARK   87  A    between atoms: _206  and  _209
REMARK   88  A    between atoms: _209  and  _210
REMARK   89  A    between atoms: _213  and  _215
REMARK   90  A    between atoms: _215  and  _216
REMARK   91  A    between atoms: _219  and  _221
REMARK   92  A    between atoms: _221  and  _222
REMARK   93  A    between atoms: _221  and  _224
REMARK   94  A    between atoms: _224  and  _225
REMARK   95  A    between atoms: _231  and  _233
REMARK   96  A    between atoms: _233  and  _234
REMARK   97  A    between atoms: _233  and  _236
REMARK   98  A    between atoms: _236  and  _237
REMARK   99  A    between atoms: _237  and  _238
REMARK  100  A    between atoms: _241  and  _243
REMARK  101  A    between atoms: _243  and  _244
REMARK  102  A    between atoms: _243  and  _246
REMARK  103  A    between atoms: _246  and  _247
REMARK  104  A    between atoms: _249  and  _251
REMARK  105  A    between atoms: _251  and  _252
REMARK  106  A    between atoms: _251  and  _254
REMARK  107  A    between atoms: _254  and  _255
REMARK  108  A    between atoms: _265  and  _267
REMARK  109  A    between atoms: _267  and  _268
REMARK  110  A    between atoms: _267  and  _270
REMARK  111  A    between atoms: _270  and  _271
REMARK  112  A    between atoms: _273  and  _275
REMARK  113  A    between atoms: _275  and  _276
REMARK  114  A    between atoms: _275  and  _278
REMARK  115  A    between atoms: _281  and  _283
REMARK  116  A    between atoms: _283  and  _284
REMARK  117  A    between atoms: _283  and  _286
REMARK  118  A    between atoms: _286  and  _287
REMARK  119  A    between atoms: _290  and  _292
REMARK  120  A    between atoms: _292  and  _293
REMARK  121  A    between atoms: _292  and  _295
REMARK  122  A    between atoms: _295  and  _296
REMARK  123  A    between atoms: _299  and  _301
REMARK  124  A    between atoms: _301  and  _302
REMARK  125  A    between atoms: _301  and  _304
REMARK  126  A    between atoms: _304  and  _305
REMARK  127  A    between atoms: _305  and  _306
REMARK  128  A    between atoms: _309  and  _311
REMARK  129  A    between atoms: _311  and  _312
REMARK  130  A    between atoms: _311  and  _314
REMARK  131  A    between atoms: _314  and  _315
REMARK  132  A    between atoms: _315  and  _316
REMARK  133  A    between atoms: _318  and  _320
REMARK  134  A    between atoms: _320  and  _321
REMARK  135  A    between atoms: _320  and  _323
REMARK  136  A    between atoms: _323  and  _324
REMARK  137  A    between atoms: _327  and  _329
REMARK  138  A    between atoms: _329  and  _330
REMARK  139  A    between atoms: _329  and  _332
REMARK  140  A    between atoms: _332  and  _333
REMARK  141  A    between atoms: _333  and  _334
REMARK  142  A    between atoms: _334  and  _335
REMARK  143  A    between atoms: _344  and  _346
REMARK  144  A    between atoms: _346  and  _347
REMARK  145  A    between atoms: _350  and  _352
REMARK  146  A    between atoms: _352  and  _353
REMARK  147  A    between atoms: _352  and  _355
REMARK  148  A    between atoms: _355  and  _356
REMARK  149  A    between atoms: _356  and  _357
REMARK  150  A    between atoms: _362  and  _364
REMARK  151  A    between atoms: _364  and  _365
REMARK  152  A    between atoms: _364  and  _367
REMARK  153  A    between atoms: _367  and  _368
REMARK  154  A    between atoms: _373  and  _375
REMARK  155  A    between atoms: _375  and  _376
REMARK  156  A    between atoms: _375  and  _378
REMARK  157  A    between atoms: _381  and  _383
REMARK  158  A    between atoms: _383  and  _384
REMARK  159  A    between atoms: _383  and  _386
REMARK  160  A    between atoms: _386  and  _387
REMARK  161  A    between atoms: _390  and  _392
REMARK  162  A    between atoms: _392  and  _393
REMARK  163  A    between atoms: _392  and  _395
REMARK  164  A    between atoms: _395  and  _396
REMARK  165  A    between atoms: _399  and  _401
REMARK  166  A    between atoms: _401  and  _402
REMARK  167  A    between atoms: _401  and  _404
REMARK  168  A    between atoms: _404  and  _405
REMARK  169  A    between atoms: _410  and  _412
REMARK  170  A    between atoms: _412  and  _413
REMARK  171  A    between atoms: _412  and  _415
REMARK  172  A    between atoms: _415  and  _416
REMARK  173  A    between atoms: _421  and  _423
REMARK  174  A    between atoms: _423  and  _424
REMARK  175  A    between atoms: _423  and  _426
REMARK  176  A    between atoms: _426  and  _427
REMARK  177  A    between atoms: _427  and  _428
REMARK  178  A    between atoms: _430  and  _432
REMARK  179  A    between atoms: _432  and  _433
REMARK  180  A    between atoms: _432  and  _435
REMARK  181  A    between atoms: _435  and  _436
REMARK  182  A    between atoms: _439  and  _441
REMARK  183  A    between atoms: _441  and  _442
REMARK  184  A    between atoms: _445  and  _447
REMARK  185  A    between atoms: _447  and  _448
REMARK  186  A    between atoms: _447  and  _450
REMARK  187  A    between atoms: _450  and  _451
REMARK  188  A    between atoms: _457  and  _459
REMARK  189  A    between atoms: _459  and  _460
REMARK  190  A    between atoms: _459  and  _462
REMARK  191  A    between atoms: _462  and  _463
REMARK  192  A    between atoms: _463  and  _464
REMARK  193  A    between atoms: _467  and  _469
REMARK  194  A    between atoms: _469  and  _470
REMARK  195  A    between atoms: _469  and  _472
REMARK  196  A    between atoms: _472  and  _473
REMARK  197  A    between atoms: _475  and  _477
REMARK  198  A    between atoms: _477  and  _478
REMARK  199  A    between atoms: _477  and  _480
REMARK  200  A    between atoms: _480  and  _481
REMARK  201  A    between atoms: _491  and  _493
REMARK  202  A    between atoms: _493  and  _494
REMARK  203  A    between atoms: _493  and  _496
REMARK  204  A    between atoms: _496  and  _497
REMARK  205  A    between atoms: _499  and  _501
REMARK  206  A    between atoms: _501  and  _502
REMARK  207  A    between atoms: _501  and  _504
REMARK  208  A    between atoms: _507  and  _509
REMARK  209  A    between atoms: _509  and  _510
REMARK  210  A    between atoms: _509  and  _512
REMARK  211  A    between atoms: _512  and  _513
REMARK  212  A    between atoms: _516  and  _518
REMARK  213  A    between atoms: _518  and  _519
REMARK  214  A    between atoms: _518  and  _521
REMARK  215  A    between atoms: _521  and  _522
REMARK  216  A    between atoms: _525  and  _527
REMARK  217  A    between atoms: _527  and  _528
REMARK  218  A    between atoms: _527  and  _530
REMARK  219  A    between atoms: _530  and  _531
REMARK  220  A    between atoms: _531  and  _532
REMARK  221  A    between atoms: _535  and  _537
REMARK  222  A    between atoms: _537  and  _538
REMARK  223  A    between atoms: _537  and  _540
REMARK  224  A    between atoms: _540  and  _541
REMARK  225  A    between atoms: _541  and  _542
REMARK                            x       y       z     vdW  Elec       q    Type
REMARK                         _______ _______ _______ _____ _____    ______ ____
ROOT
ATOM      1  CA  ARG A   4      27.186  47.719  46.329  0.00  0.00    +0.149 C 
ENDROOT
BRANCH   1   2
ATOM      2  C   ARG A   4      27.128  46.292  45.887  0.00  0.00    +0.241 C 
ATOM      3  N   ALA A   5      26.838  45.396  46.827  0.00  0.00    -0.297 N 
ATOM      4  H   ALA A   5      26.730  45.707  47.813  0.00  0.00    +0.150 HD
ATOM      5  O   ARG A   4      27.338  45.988  44.696  0.00  0.00    -0.273 OA
BRANCH   3   6
ATOM      6  CA  ALA A   5      26.668  43.972  46.496  0.00  0.00    +0.149 C 
ATOM      7  CB  ALA A   5      26.340  43.174  47.721  0.00  0.00    +0.031 C 
BRANCH   6   8
ATOM      8  C   ALA A   5      25.600  43.772  45.417  0.00  0.00    +0.241 C 
ATOM      9  N   GLN A   6      24.527  44.569  45.475  0.00  0.00    -0.298 N 
ATOM     10  H   GLN A   6      24.462  45.278  46.233  0.00  0.00    +0.150 HD
ATOM     11  O   ALA A   5      25.746  42.923  44.553  0.00  0.00    -0.273 OA
BRANCH   9  12
ATOM     12  CA  GLN A   6      23.436  44.468  44.493  0.00  0.00    +0.137 C 
BRANCH  12  13
ATOM     13  C   GLN A   6      23.875  44.953  43.103  0.00  0.00    +0.227 C 
ATOM     14  O   GLN A   6      23.622  44.306  42.110  0.00  0.00    -0.286 OA
ENDBRANCH  12  13
BRANCH  12  15
ATOM     15  CB  GLN A   6      22.180  45.255  44.977  0.00  0.00    +0.037 C 
BRANCH  15  16
ATOM     16  CG  GLN A   6      21.510  44.635  46.226  0.00  0.00    +0.087 C 
BRANCH  16  17
ATOM     17  CD  GLN A   6      20.222  45.343  46.637  0.00  0.00    +0.219 C 
ATOM     18  NE2 GLN A   6      19.434  44.689  47.455  0.00  0.00    -0.329 N 
ATOM     19 HE21 GLN A   6      19.699  43.739  47.784  0.00  0.00    +0.145 HD
ATOM     20 HE22 GLN A   6      18.544  45.121  47.776  0.00  0.00    +0.145 HD
ATOM     21  OE1 GLN A   6      19.960  46.444  46.229  0.00  0.00    -0.275 OA
ENDBRANCH  16  17
ENDBRANCH  15  16
ENDBRANCH  12  15
ENDBRANCH   9  12
ENDBRANCH   6   8
ENDBRANCH   3   6
ENDBRANCH   1   2
BRANCH   1  23
ATOM     22  C   LEU A   3      24.808  48.035  46.604  0.00  0.00    +0.241 C 
ATOM     23  N   ARG A   4      26.028  48.037  47.130  0.00  0.00    -0.297 N 
ATOM     24  H   ARG A   4      26.151  48.272  48.136  0.00  0.00    +0.150 HD
ATOM     25  O   LEU A   3      24.597  47.839  45.402  0.00  0.00    -0.273 OA
BRANCH  22  26
ATOM     26  CA  LEU A   3      23.648  48.291  47.567  0.00  0.00    +0.149 C 
BRANCH  26  28
ATOM     27  C   MET A   2      23.892  46.307  48.920  0.00  0.00    +0.241 C 
ATOM     28  N   LEU A   3      23.856  47.625  48.837  0.00  0.00    -0.297 N 
ATOM     29  H   LEU A   3      23.979  48.195  49.698  0.00  0.00    +0.150 HD
ATOM     30  O   MET A   2      23.596  45.577  47.987  0.00  0.00    -0.273 OA
BRANCH  27  31
ATOM     31  CA  MET A   2      24.325  45.723  50.255  0.00  0.00    +0.149 C 
BRANCH  31  33
ATOM     32  C   GLU A   1      26.587  46.510  50.638  0.00  0.00    +0.238 C 
ATOM     33  N   MET A   2      25.290  46.575  50.924  0.00  0.00    -0.297 N 
ATOM     34  H   MET A   2      24.960  47.251  51.642  0.00  0.00    +0.150 HD
ATOM     35  O   GLU A   1      27.043  45.787  49.754  0.00  0.00    -0.274 OA
BRANCH  32  36
ATOM     36  CA  GLU A   1      27.504  47.387  51.464  0.00  0.00    +0.145 C 
BRANCH  36  37
ATOM     37  N   GLU A   1      26.793  48.519  52.024  0.00  0.00    -0.238 NA
ATOM     38  H   GLU A   1      26.569  48.519  53.040  0.00  0.00    +0.142 HD
ENDBRANCH  36  37
BRANCH  36  39
ATOM     39  CB  GLU A   1      28.163  46.566  52.582  0.00  0.00    +0.038 C 
BRANCH  39  40
ATOM     40  CG  GLU A   1      29.175  47.354  53.406  0.00  0.00    +0.116 C 
BRANCH  40  41
ATOM     41  CD  GLU A   1      28.831  47.377  54.893  0.00  0.00    +0.365 C 
ATOM     42  OE2 GLU A   1      29.680  47.843  55.694  0.00  0.00    -0.246 OA
ATOM     43  OE1 GLU A   1      27.715  46.932  55.261  0.00  0.00    -0.246 OA
ENDBRANCH  40  41
ENDBRANCH  39  40
ENDBRANCH  36  39
ENDBRANCH  32  36
ENDBRANCH  31  33
BRANCH  31  44
ATOM     44  CB  MET A   2      23.106  45.461  51.143  0.00  0.00    +0.041 C 
BRANCH  44  45
ATOM     45  CG  MET A   2      22.385  44.133  50.822  0.00  0.00    +0.060 C 
BRANCH  45  46
ATOM     46  SD  MET A   2      20.947  43.815  51.862  0.00  0.00    -0.139 S 
ATOM     47  CE  MET A   2      21.739  43.503  53.472  0.00  0.00    +0.069 C 
ENDBRANCH  45  46
ENDBRANCH  44  45
ENDBRANCH  31  44
ENDBRANCH  27  31
ENDBRANCH  26  28
BRANCH  26  48
ATOM     48  CB  LEU A   3      23.457  49.788  47.772  0.00  0.00    +0.029 C 
BRANCH  48  49
ATOM     49  CG  LEU A   3      22.978  50.564  46.547  0.00  0.00    +0.002 C 
ATOM     50  CD2 LEU A   3      23.241  52.018  46.728  0.00  0.00    +0.000 C 
ATOM     51  CD1 LEU A   3      21.487  50.314  46.281  0.00  0.00    +0.000 C 
ENDBRANCH  48  49
ENDBRANCH  26  48
ENDBRANCH  22  26
ENDBRANCH   1  23
BRANCH   1  52
ATOM     52  CB  ARG A   4      28.486  47.981  47.102  0.00  0.00    +0.033 C 
BRANCH  52  53
ATOM     53  CG  ARG A   4      29.717  47.460  46.400  0.00  0.00    +0.045 C 
BRANCH  53  54
ATOM     54  CD  ARG A   4      30.997  47.926  47.084  0.00  0.00    +0.174 C 
BRANCH  54  55
ATOM     55  NE  ARG A   4      32.187  47.510  46.347  0.00  0.00    -0.265 N 
ATOM     56  HE  ARG A   4      32.504  46.525  46.452  0.00  0.00    +0.259 HD
ATOM     57  CZ  ARG A   4      32.894  48.309  45.549  0.00  0.00    +0.342 C 
ATOM     58  NH2 ARG A   4      32.527  49.578  45.380  0.00  0.00    -0.292 N 
ATOM     59 HH21 ARG A   4      31.688  49.946  45.871  0.00  0.00    +0.255 HD
ATOM     60 HH22 ARG A   4      33.080  50.201  44.757  0.00  0.00    +0.255 HD
ATOM     61  NH1 ARG A   4      33.974  47.838  44.916  0.00  0.00    -0.292 N 
ATOM     62 HH11 ARG A   4      34.262  46.847  45.047  0.00  0.00    +0.255 HD
ATOM     63 HH12 ARG A   4      34.525  48.462  44.293  0.00  0.00    +0.255 HD
ENDBRANCH  54  55
ENDBRANCH  53  54
ENDBRANCH  52  53
ENDBRANCH   1  52
TORSDOF 27
REMARK  Name = ../refined-set-2016/3f8f/3f8f_pocket.pdb
REMARK  225 active torsions:
REMARK  status: ('A' for Active; 'I' for Inactive)
REMARK    1  A    between atoms: _1  and  _3
REMARK    2  A    between atoms: _3  and  _4
REMARK    3  A    between atoms: _3  and  _6
REMARK    4  A    between atoms: _6  and  _7
REMARK    5  A    between atoms: _11  and  _12
REMARK    6  A    between atoms: _17  and  _19
REMARK    7  A    between atoms: _19  and  _20
REMARK    8  A    between atoms: _19  and  _22
REMARK    9  A    between atoms: _22  and  _23
REMARK   10  A    between atoms: _23  and  _24
REMARK   11  A    between atoms: _27  and  _29
REMARK   12  A    between atoms: _29  and  _30
REMARK   13  A    between atoms: _29  and  _32
REMARK   14  A    between atoms: _32  and  _33
REMARK   15  A    between atoms: _33  and  _34
REMARK   16  A    between atoms: _36  and  _38
REMARK   17  A    between atoms: _38  and  _39
REMARK   18  A    between atoms: _38  and  _41
REMARK   19  A    between atoms: _41  and  _42
REMARK   20  A    between atoms: _45  and  _47
REMARK   21  A    between atoms: _47  and  _48
REMARK   22  A    between atoms: _47  and  _50
REMARK   23  A    between atoms: _50  and  _51
REMARK   24  A    between atoms: _51  and  _52
REMARK   25  A    between atoms: _52  and  _53
REMARK   26  A    between atoms: _62  and  _64
REMARK   27  A    between atoms: _64  and  _65
REMARK   28  A    between atoms: _68  and  _70
REMARK   29  A    between atoms: _70  and  _71
REMARK   30  A    between atoms: _70  and  _73
REMARK   31  A    between atoms: _73  and  _74
REMARK   32  A    between atoms: _74  and  _75
REMARK   33  A    between atoms: _80  and  _82
REMARK   34  A    between atoms: _82  and  _83
REMARK   35  A    between atoms: _82  and  _85
REMARK   36  A    between atoms: _85  and  _86
REMARK   37  A    between atoms: _91  and  _93
REMARK   38  A    between atoms: _93  and  _94
REMARK   39  A    between atoms: _93  and  _96
REMARK   40  A    between atoms: _99  and  _101
REMARK   41  A    between atoms: _101  and  _102
REMARK   42  A    between atoms: _101  and  _104
REMARK   43  A    between atoms: _104  and  _105
REMARK   44  A    between atoms: _108  and  _110
REMARK   45  A    between atoms: _110  and  _111
REMARK   46  A    between atoms: _110  and  _113
REMARK   47  A    between atoms: _113  and  _114
REMARK   48  A    between atoms: _117  and  _119
REMARK   49  A    between atoms: _119  and  _120
REMARK   50  A    between atoms: _119  and  _122
REMARK   51  A    between atoms: _122  and  _123
REMARK   52  A    between atoms: _128  and  _130
REMARK   53  A    between atoms: _130  and  _131
REMARK   54  A    between atoms: _130  and  _133
REMARK   55  A    between atoms: _133  and  _134
REMARK   56  A    between atoms: _134  and  _135
REMARK   57  A    between atoms: _135  and  _136
REMARK   58  A    between atoms: _136  and  _137
REMARK   59  A    between atoms: _141  and  _143
REMARK   60  A    between atoms: _143  and  _144
REMARK   61  A    between atoms: _146  and  _148
REMARK   62  A    between atoms: _148  and  _149
REMARK   63  A    between atoms: _148  and  _151
REMARK   64  A    between atoms: _151  and  _152
REMARK   65  A    between atoms: _157  and  _159
REMARK   66  A    between atoms: _159  and  _160
REMARK   67  A    between atoms: _159  and  _162
REMARK   68  A    between atoms: _162  and  _163
REMARK   69  A    between atoms: _163  and  _164
REMARK   70  A    between atoms: _167  and  _169
REMARK   71  A    between atoms: _169  and  _170
REMARK   72  A    between atoms: _169  and  _172
REMARK   73  A    between atoms: _172  and  _173
REMARK   74  A    between atoms: _178  and  _180
REMARK   75  A    between atoms: _180  and  _181
REMARK   76  A    between atoms: _180  and  _183
REMARK   77  A    between atoms: _183  and  _184
REMARK   78  A    between atoms: _184  and  _185
REMARK   79  A    between atoms: _187  and  _189
REMARK   80  A    between atoms: _189  and  _190
REMARK   81  A    between atoms: _189  and  _192
REMARK   82  A    between atoms: _192  and  _193
REMARK   83  A    between atoms: _193  and  _194
REMARK   84  A    between atoms: _194  and  _195
REMARK   85  A    between atoms: _204  and  _206
REMARK   86  A    between atoms: _206  and  _207
REMARK   87  A    between atoms: _206  and  _209
REMARK   88  A    between atoms: _209  and  _210
REMARK   89  A    between atoms: _213  and  _215
REMARK   90  A    between atoms: _215  and  _216
REMARK   91  A    between atoms: _219  and  _221
REMARK   92  A    between atoms: _221  and  _222
REMARK   93  A    between atoms: _221  and  _224
REMARK   94  A    between atoms: _224  and  _225
REMARK   95  A    between atoms: _231  and  _233
REMARK   96  A    between atoms: _233  and  _234
REMARK   97  A    between atoms: _233  and  _236
REMARK   98  A    between atoms: _236  and  _237
REMARK   99  A    between atoms: _237  and  _238
REMARK  100  A    between atoms: _241  and  _243
REMARK  101  A    between atoms: _243  and  _244
REMARK  102  A    between atoms: _243  and  _246
REMARK  103  A    between atoms: _246  and  _247
REMARK  104  A    between atoms: _249  and  _251
REMARK  105  A    between atoms: _251  and  _252
REMARK  106  A    between atoms: _251  and  _254
REMARK  107  A    between atoms: _254  and  _255
REMARK  108  A    between atoms: _265  and  _267
REMARK  109  A    between atoms: _267  and  _268
REMARK  110  A    between atoms: _267  and  _270
REMARK  111  A    between atoms: _270  and  _271
REMARK  112  A    between atoms: _273  and  _275
REMARK  113  A    between atoms: _275  and  _276
REMARK  114  A    between atoms: _275  and  _278
REMARK  115  A    between atoms: _281  and  _283
REMARK  116  A    between atoms: _283  and  _284
REMARK  117  A    between atoms: _283  and  _286
REMARK  118  A    between atoms: _286  and  _287
REMARK  119  A    between atoms: _290  and  _292
REMARK  120  A    between atoms: _292  and  _293
REMARK  121  A    between atoms: _292  and  _295
REMARK  122  A    between atoms: _295  and  _296
REMARK  123  A    between atoms: _299  and  _301
REMARK  124  A    between atoms: _301  and  _302
REMARK  125  A    between atoms: _301  and  _304
REMARK  126  A    between atoms: _304  and  _305
REMARK  127  A    between atoms: _305  and  _306
REMARK  128  A    between atoms: _309  and  _311
REMARK  129  A    between atoms: _311  and  _312
REMARK  130  A    between atoms: _311  and  _314
REMARK  131  A    between atoms: _314  and  _315
REMARK  132  A    between atoms: _315  and  _316
REMARK  133  A    between atoms: _318  and  _320
REMARK  134  A    between atoms: _320  and  _321
REMARK  135  A    between atoms: _320  and  _323
REMARK  136  A    between atoms: _323  and  _324
REMARK  137  A    between atoms: _327  and  _329
REMARK  138  A    between atoms: _329  and  _330
REMARK  139  A    between atoms: _329  and  _332
REMARK  140  A    between atoms: _332  and  _333
REMARK  141  A    between atoms: _333  and  _334
REMARK  142  A    between atoms: _334  and  _335
REMARK  143  A    between atoms: _344  and  _346
REMARK  144  A    between atoms: _346  and  _347
REMARK  145  A    between atoms: _350  and  _352
REMARK  146  A    between atoms: _352  and  _353
REMARK  147  A    between atoms: _352  and  _355
REMARK  148  A    between atoms: _355  and  _356
REMARK  149  A    between atoms: _356  and  _357
REMARK  150  A    between atoms: _362  and  _364
REMARK  151  A    between atoms: _364  and  _365
REMARK  152  A    between atoms: _364  and  _367
REMARK  153  A    between atoms: _367  and  _368
REMARK  154  A    between atoms: _373  and  _375
REMARK  155  A    between atoms: _375  and  _376
REMARK  156  A    between atoms: _375  and  _378
REMARK  157  A    between atoms: _381  and  _383
REMARK  158  A    between atoms: _383  and  _384
REMARK  159  A    between atoms: _383  and  _386
REMARK  160  A    between atoms: _386  and  _387
REMARK  161  A    between atoms: _390  and  _392
REMARK  162  A    between atoms: _392  and  _393
REMARK  163  A    between atoms: _392  and  _395
REMARK  164  A    between atoms: _395  and  _396
REMARK  165  A    between atoms: _399  and  _401
REMARK  166  A    between atoms: _401  and  _402
REMARK  167  A    between atoms: _401  and  _404
REMARK  168  A    between atoms: _404  and  _405
REMARK  169  A    between atoms: _410  and  _412
REMARK  170  A    between atoms: _412  and  _413
REMARK  171  A    between atoms: _412  and  _415
REMARK  172  A    between atoms: _415  and  _416
REMARK  173  A    between atoms: _421  and  _423
REMARK  174  A    between atoms: _423  and  _424
REMARK  175  A    between atoms: _423  and  _426
REMARK  176  A    between atoms: _426  and  _427
REMARK  177  A    between atoms: _427  and  _428
REMARK  178  A    between atoms: _430  and  _432
REMARK  179  A    between atoms: _432  and  _433
REMARK  180  A    between atoms: _432  and  _435
REMARK  181  A    between atoms: _435  and  _436
REMARK  182  A    between atoms: _439  and  _441
REMARK  183  A    between atoms: _441  and  _442
REMARK  184  A    between atoms: _445  and  _447
REMARK  185  A    between atoms: _447  and  _448
REMARK  186  A    between atoms: _447  and  _450
REMARK  187  A    between atoms: _450  and  _451
REMARK  188  A    between atoms: _457  and  _459
REMARK  189  A    between atoms: _459  and  _460
REMARK  190  A    between atoms: _459  and  _462
REMARK  191  A    between atoms: _462  and  _463
REMARK  192  A    between atoms: _463  and  _464
REMARK  193  A    between atoms: _467  and  _469
REMARK  194  A    between atoms: _469  and  _470
REMARK  195  A    between atoms: _469  and  _472
REMARK  196  A    between atoms: _472  and  _473
REMARK  197  A    between atoms: _475  and  _477
REMARK  198  A    between atoms: _477  and  _478
REMARK  199  A    between atoms: _477  and  _480
REMARK  200  A    between atoms: _480  and  _481
REMARK  201  A    between atoms: _491  and  _493
REMARK  202  A    between atoms: _493  and  _494
REMARK  203  A    between atoms: _493  and  _496
REMARK  204  A    between atoms: _496  and  _497
REMARK  205  A    between atoms: _499  and  _501
REMARK  206  A    between atoms: _501  and  _502
REMARK  207  A    between atoms: _501  and  _504
REMARK  208  A    between atoms: _507  and  _509
REMARK  209  A    between atoms: _509  and  _510
REMARK  210  A    between atoms: _509  and  _512
REMARK  211  A    between atoms: _512  and  _513
REMARK  212  A    between atoms: _516  and  _518
REMARK  213  A    between atoms: _518  and  _519
REMARK  214  A    between atoms: _518  and  _521
REMARK  215  A    between atoms: _521  and  _522
REMARK  216  A    between atoms: _525  and  _527
REMARK  217  A    between atoms: _527  and  _528
REMARK  218  A    between atoms: _527  and  _530
REMARK  219  A    between atoms: _530  and  _531
REMARK  220  A    between atoms: _531  and  _532
REMARK  221  A    between atoms: _535  and  _537
REMARK  222  A    between atoms: _537  and  _538
REMARK  223  A    between atoms: _537  and  _540
REMARK  224  A    between atoms: _540  and  _541
REMARK  225  A    between atoms: _541  and  _542
REMARK                            x       y       z     vdW  Elec       q    Type
REMARK                         _______ _______ _______ _____ _____    ______ ____
ROOT
ATOM      1  CA  VAL A   2      25.224  41.165  40.898  0.00  0.00    +0.148 C 
ENDROOT
BRANCH   1   3
ATOM      2  C   ASN A   1      27.035  42.798  40.859  0.00  0.00    +0.239 C 
ATOM      3  N   VAL A   2      26.020  42.233  41.482  0.00  0.00    -0.297 N 
ATOM      4  H   VAL A   2      25.777  42.567  42.436  0.00  0.00    +0.150 HD
ATOM      5  O   ASN A   1      27.398  42.467  39.737  0.00  0.00    -0.274 OA
BRANCH   2   6
ATOM      6  CA  ASN A   1      27.763  43.930  41.641  0.00  0.00    +0.154 C 
BRANCH   6   7
ATOM      7  N   ASN A   1      26.862  45.001  42.045  0.00  0.00    -0.238 NA
ATOM      8  H   ASN A   1      26.853  45.288  43.044  0.00  0.00    +0.142 HD
ENDBRANCH   6   7
BRANCH   6   9
ATOM      9  CB  ASN A   1      28.427  43.351  42.873  0.00  0.00    +0.111 C 
BRANCH   9  10
ATOM     10  CG  ASN A   1      29.878  43.614  42.922  0.00  0.00    +0.221 C 
ATOM     11  ND2 ASN A   1      30.291  44.469  43.850  0.00  0.00    -0.329 N 
ATOM     12 HD21 ASN A   1      29.602  44.919  44.486  0.00  0.00    +0.145 HD
ATOM     13 HD22 ASN A   1      31.303  44.689  43.941  0.00  0.00    +0.145 HD
ATOM     14  OD1 ASN A   1      30.651  43.053  42.143  0.00  0.00    -0.275 OA
ENDBRANCH   9  10
ENDBRANCH   6   9
ENDBRANCH   2   6
ENDBRANCH   1   3
BRANCH   1  15
ATOM     15  C   VAL A   2      24.567  41.584  39.559  0.00  0.00    +0.241 C 
ATOM     16  N   ILE A   3      24.036  42.793  39.529  0.00  0.00    -0.298 N 
ATOM     17  H   ILE A   3      24.144  43.408  40.361  0.00  0.00    +0.150 HD
ATOM     18  O   VAL A   2      24.545  40.812  38.585  0.00  0.00    -0.273 OA
BRANCH  16  19
ATOM     19  CA  ILE A   3      23.308  43.294  38.378  0.00  0.00    +0.137 C 
BRANCH  19  20
ATOM     20  CB  ILE A   3      22.670  44.654  38.683  0.00  0.00    +0.026 C 
ATOM     21  CG2 ILE A   3      22.364  45.381  37.399  0.00  0.00    +0.002 C 
BRANCH  20  22
ATOM     22  CG1 ILE A   3      21.399  44.476  39.544  0.00  0.00    +0.002 C 
ATOM     23  CD1 ILE A   3      20.740  45.807  39.962  0.00  0.00    +0.000 C 
ENDBRANCH  20  22
ENDBRANCH  19  20
BRANCH  19  24
ATOM     24  C   ILE A   3      24.241  43.472  37.211  0.00  0.00    +0.227 C 
ATOM     25  O   ILE A   3      23.910  43.129  36.080  0.00  0.00    -0.286 OA
ENDBRANCH  19  24
ENDBRANCH  16  19
ENDBRANCH   1  15
BRANCH   1  26
ATOM     26  CB  VAL A   2      24.137  40.706  41.893  0.00  0.00    +0.027 C 
ATOM     27  CG2 VAL A   2      24.785  40.073  43.105  0.00  0.00    +0.002 C 
ATOM     28  CG1 VAL A   2      23.164  39.726  41.232  0.00  0.00    +0.002 C 
ENDBRANCH   1  26
TORSDOF 11
REMARK  Name = ../refined-set-2016/3f8f/3f8f_pocket.pdb
REMARK  225 active torsions:
REMARK  status: ('A' for Active; 'I' for Inactive)
REMARK    1  A    between atoms: _1  and  _3
REMARK    2  A    between atoms: _3  and  _4
REMARK    3  A    between atoms: _3  and  _6
REMARK    4  A    between atoms: _6  and  _7
REMARK    5  A    between atoms: _11  and  _12
REMARK    6  A    between atoms: _17  and  _19
REMARK    7  A    between atoms: _19  and  _20
REMARK    8  A    between atoms: _19  and  _22
REMARK    9  A    between atoms: _22  and  _23
REMARK   10  A    between atoms: _23  and  _24
REMARK   11  A    between atoms: _27  and  _29
REMARK   12  A    between atoms: _29  and  _30
REMARK   13  A    between atoms: _29  and  _32
REMARK   14  A    between atoms: _32  and  _33
REMARK   15  A    between atoms: _33  and  _34
REMARK   16  A    between atoms: _36  and  _38
REMARK   17  A    between atoms: _38  and  _39
REMARK   18  A    between atoms: _38  and  _41
REMARK   19  A    between atoms: _41  and  _42
REMARK   20  A    between atoms: _45  and  _47
REMARK   21  A    between atoms: _47  and  _48
REMARK   22  A    between atoms: _47  and  _50
REMARK   23  A    between atoms: _50  and  _51
REMARK   24  A    between atoms: _51  and  _52
REMARK   25  A    between atoms: _52  and  _53
REMARK   26  A    between atoms: _62  and  _64
REMARK   27  A    between atoms: _64  and  _65
REMARK   28  A    between atoms: _68  and  _70
REMARK   29  A    between atoms: _70  and  _71
REMARK   30  A    between atoms: _70  and  _73
REMARK   31  A    between atoms: _73  and  _74
REMARK   32  A    between atoms: _74  and  _75
REMARK   33  A    between atoms: _80  and  _82
REMARK   34  A    between atoms: _82  and  _83
REMARK   35  A    between atoms: _82  and  _85
REMARK   36  A    between atoms: _85  and  _86
REMARK   37  A    between atoms: _91  and  _93
REMARK   38  A    between atoms: _93  and  _94
REMARK   39  A    between atoms: _93  and  _96
REMARK   40  A    between atoms: _99  and  _101
REMARK   41  A    between atoms: _101  and  _102
REMARK   42  A    between atoms: _101  and  _104
REMARK   43  A    between atoms: _104  and  _105
REMARK   44  A    between atoms: _108  and  _110
REMARK   45  A    between atoms: _110  and  _111
REMARK   46  A    between atoms: _110  and  _113
REMARK   47  A    between atoms: _113  and  _114
REMARK   48  A    between atoms: _117  and  _119
REMARK   49  A    between atoms: _119  and  _120
REMARK   50  A    between atoms: _119  and  _122
REMARK   51  A    between atoms: _122  and  _123
REMARK   52  A    between atoms: _128  and  _130
REMARK   53  A    between atoms: _130  and  _131
REMARK   54  A    between atoms: _130  and  _133
REMARK   55  A    between atoms: _133  and  _134
REMARK   56  A    between atoms: _134  and  _135
REMARK   57  A    between atoms: _135  and  _136
REMARK   58  A    between atoms: _136  and  _137
REMARK   59  A    between atoms: _141  and  _143
REMARK   60  A    between atoms: _143  and  _144
REMARK   61  A    between atoms: _146  and  _148
REMARK   62  A    between atoms: _148  and  _149
REMARK   63  A    between atoms: _148  and  _151
REMARK   64  A    between atoms: _151  and  _152
REMARK   65  A    between atoms: _157  and  _159
REMARK   66  A    between atoms: _159  and  _160
REMARK   67  A    between atoms: _159  and  _162
REMARK   68  A    between atoms: _162  and  _163
REMARK   69  A    between atoms: _163  and  _164
REMARK   70  A    between atoms: _167  and  _169
REMARK   71  A    between atoms: _169  and  _170
REMARK   72  A    between atoms: _169  and  _172
REMARK   73  A    between atoms: _172  and  _173
REMARK   74  A    between atoms: _178  and  _180
REMARK   75  A    between atoms: _180  and  _181
REMARK   76  A    between atoms: _180  and  _183
REMARK   77  A    between atoms: _183  and  _184
REMARK   78  A    between atoms: _184  and  _185
REMARK   79  A    between atoms: _187  and  _189
REMARK   80  A    between atoms: _189  and  _190
REMARK   81  A    between atoms: _189  and  _192
REMARK   82  A    between atoms: _192  and  _193
REMARK   83  A    between atoms: _193  and  _194
REMARK   84  A    between atoms: _194  and  _195
REMARK   85  A    between atoms: _204  and  _206
REMARK   86  A    between atoms: _206  and  _207
REMARK   87  A    between atoms: _206  and  _209
REMARK   88  A    between atoms: _209  and  _210
REMARK   89  A    between atoms: _213  and  _215
REMARK   90  A    between atoms: _215  and  _216
REMARK   91  A    between atoms: _219  and  _221
REMARK   92  A    between atoms: _221  and  _222
REMARK   93  A    between atoms: _221  and  _224
REMARK   94  A    between atoms: _224  and  _225
REMARK   95  A    between atoms: _231  and  _233
REMARK   96  A    between atoms: _233  and  _234
REMARK   97  A    between atoms: _233  and  _236
REMARK   98  A    between atoms: _236  and  _237
REMARK   99  A    between atoms: _237  and  _238
REMARK  100  A    between atoms: _241  and  _243
REMARK  101  A    between atoms: _243  and  _244
REMARK  102  A    between atoms: _243  and  _246
REMARK  103  A    between atoms: _246  and  _247
REMARK  104  A    between atoms: _249  and  _251
REMARK  105  A    between atoms: _251  and  _252
REMARK  106  A    between atoms: _251  and  _254
REMARK  107  A    between atoms: _254  and  _255
REMARK  108  A    between atoms: _265  and  _267
REMARK  109  A    between atoms: _267  and  _268
REMARK  110  A    between atoms: _267  and  _270
REMARK  111  A    between atoms: _270  and  _271
REMARK  112  A    between atoms: _273  and  _275
REMARK  113  A    between atoms: _275  and  _276
REMARK  114  A    between atoms: _275  and  _278
REMARK  115  A    between atoms: _281  and  _283
REMARK  116  A    between atoms: _283  and  _284
REMARK  117  A    between atoms: _283  and  _286
REMARK  118  A    between atoms: _286  and  _287
REMARK  119  A    between atoms: _290  and  _292
REMARK  120  A    between atoms: _292  and  _293
REMARK  121  A    between atoms: _292  and  _295
REMARK  122  A    between atoms: _295  and  _296
REMARK  123  A    between atoms: _299  and  _301
REMARK  124  A    between atoms: _301  and  _302
REMARK  125  A    between atoms: _301  and  _304
REMARK  126  A    between atoms: _304  and  _305
REMARK  127  A    between atoms: _305  and  _306
REMARK  128  A    between atoms: _309  and  _311
REMARK  129  A    between atoms: _311  and  _312
REMARK  130  A    between atoms: _311  and  _314
REMARK  131  A    between atoms: _314  and  _315
REMARK  132  A    between atoms: _315  and  _316
REMARK  133  A    between atoms: _318  and  _320
REMARK  134  A    between atoms: _320  and  _321
REMARK  135  A    between atoms: _320  and  _323
REMARK  136  A    between atoms: _323  and  _324
REMARK  137  A    between atoms: _327  and  _329
REMARK  138  A    between atoms: _329  and  _330
REMARK  139  A    between atoms: _329  and  _332
REMARK  140  A    between atoms: _332  and  _333
REMARK  141  A    between atoms: _333  and  _334
REMARK  142  A    between atoms: _334  and  _335
REMARK  143  A    between atoms: _344  and  _346
REMARK  144  A    between atoms: _346  and  _347
REMARK  145  A    between atoms: _350  and  _352
REMARK  146  A    between atoms: _352  and  _353
REMARK  147  A    between atoms: _352  and  _355
REMARK  148  A    between atoms: _355  and  _356
REMARK  149  A    between atoms: _356  and  _357
REMARK  150  A    between atoms: _362  and  _364
REMARK  151  A    between atoms: _364  and  _365
REMARK  152  A    between atoms: _364  and  _367
REMARK  153  A    between atoms: _367  and  _368
REMARK  154  A    between atoms: _373  and  _375
REMARK  155  A    between atoms: _375  and  _376
REMARK  156  A    between atoms: _375  and  _378
REMARK  157  A    between atoms: _381  and  _383
REMARK  158  A    between atoms: _383  and  _384
REMARK  159  A    between atoms: _383  and  _386
REMARK  160  A    between atoms: _386  and  _387
REMARK  161  A    between atoms: _390  and  _392
REMARK  162  A    between atoms: _392  and  _393
REMARK  163  A    between atoms: _392  and  _395
REMARK  164  A    between atoms: _395  and  _396
REMARK  165  A    between atoms: _399  and  _401
REMARK  166  A    between atoms: _401  and  _402
REMARK  167  A    between atoms: _401  and  _404
REMARK  168  A    between atoms: _404  and  _405
REMARK  169  A    between atoms: _410  and  _412
REMARK  170  A    between atoms: _412  and  _413
REMARK  171  A    between atoms: _412  and  _415
REMARK  172  A    between atoms: _415  and  _416
REMARK  173  A    between atoms: _421  and  _423
REMARK  174  A    between atoms: _423  and  _424
REMARK  175  A    between atoms: _423  and  _426
REMARK  176  A    between atoms: _426  and  _427
REMARK  177  A    between atoms: _427  and  _428
REMARK  178  A    between atoms: _430  and  _432
REMARK  179  A    between atoms: _432  and  _433
REMARK  180  A    between atoms: _432  and  _435
REMARK  181  A    between atoms: _435  and  _436
REMARK  182  A    between atoms: _439  and  _441
REMARK  183  A    between atoms: _441  and  _442
REMARK  184  A    between atoms: _445  and  _447
REMARK  185  A    between atoms: _447  and  _448
REMARK  186  A    between atoms: _447  and  _450
REMARK  187  A    between atoms: _450  and  _451
REMARK  188  A    between atoms: _457  and  _459
REMARK  189  A    between atoms: _459  and  _460
REMARK  190  A    between atoms: _459  and  _462
REMARK  191  A    between atoms: _462  and  _463
REMARK  192  A    between atoms: _463  and  _464
REMARK  193  A    between atoms: _467  and  _469
REMARK  194  A    between atoms: _469  and  _470
REMARK  195  A    between atoms: _469  and  _472
REMARK  196  A    between atoms: _472  and  _473
REMARK  197  A    between atoms: _475  and  _477
REMARK  198  A    between atoms: _477  and  _478
REMARK  199  A    between atoms: _477  and  _480
REMARK  200  A    between atoms: _480  and  _481
REMARK  201  A    between atoms: _491  and  _493
REMARK  202  A    between atoms: _493  and  _494
REMARK  203  A    between atoms: _493  and  _496
REMARK  204  A    between atoms: _496  and  _497
REMARK  205  A    between atoms: _499  and  _501
REMARK  206  A    between atoms: _501  and  _502
REMARK  207  A    between atoms: _501  and  _504
REMARK  208  A    between atoms: _507  and  _509
REMARK  209  A    between atoms: _509  and  _510
REMARK  210  A    between atoms: _509  and  _512
REMARK  211  A    between atoms: _512  and  _513
REMARK  212  A    between atoms: _516  and  _518
REMARK  213  A    between atoms: _518  and  _519
REMARK  214  A    between atoms: _518  and  _521
REMARK  215  A    between atoms: _521  and  _522
REMARK  216  A    between atoms: _525  and  _527
REMARK  217  A    between atoms: _527  and  _528
REMARK  218  A    between atoms: _527  and  _530
REMARK  219  A    between atoms: _530  and  _531
REMARK  220  A    between atoms: _531  and  _532
REMARK  221  A    between atoms: _535  and  _537
REMARK  222  A    between atoms: _537  and  _538
REMARK  223  A    between atoms: _537  and  _540
REMARK  224  A    between atoms: _540  and  _541
REMARK  225  A    between atoms: _541  and  _542
REMARK                            x       y       z     vdW  Elec       q    Type
REMARK                         _______ _______ _______ _____ _____    ______ ____
ROOT
ATOM      1  C   LEU A   1      26.647  40.166  35.350  0.00  0.00    +0.238 C 
ATOM      2  N   ASN A   2      25.363  40.427  35.642  0.00  0.00    -0.298 N 
ATOM      3  H   ASN A   2      25.135  41.042  36.449  0.00  0.00    +0.150 HD
ATOM      4  O   LEU A   1      26.991  39.504  34.360  0.00  0.00    -0.274 OA
ENDROOT
BRANCH   1   5
ATOM      5  CA  LEU A   1      27.687  40.729  36.303  0.00  0.00    +0.145 C 
BRANCH   5   6
ATOM      6  N   LEU A   1      27.315  42.050  36.753  0.00  0.00    -0.238 NA
ATOM      7  H   LEU A   1      27.351  42.272  37.768  0.00  0.00    +0.142 HD
ENDBRANCH   5   6
BRANCH   5   8
ATOM      8  CB  LEU A   1      27.891  39.792  37.496  0.00  0.00    +0.026 C 
BRANCH   8   9
ATOM      9  CG  LEU A   1      29.194  40.033  38.306  0.00  0.00    +0.002 C 
ATOM     10  CD2 LEU A   1      29.314  39.040  39.458  0.00  0.00    +0.000 C 
ATOM     11  CD1 LEU A   1      30.408  39.952  37.409  0.00  0.00    +0.000 C 
ENDBRANCH   8   9
ENDBRANCH   5   8
ENDBRANCH   1   5
BRANCH   2  12
ATOM     12  CA  ASN A   2      24.269  39.851  34.831  0.00  0.00    +0.146 C 
BRANCH  12  13
ATOM     13  C   ASN A   2      24.067  40.527  33.481  0.00  0.00    +0.227 C 
ATOM     14  O   ASN A   2      23.684  39.882  32.521  0.00  0.00    -0.286 OA
ENDBRANCH  12  13
BRANCH  12  15
ATOM     15  CB  ASN A   2      22.954  39.765  35.625  0.00  0.00    +0.112 C 
BRANCH  15  16
ATOM     16  CG  ASN A   2      22.895  38.540  36.498  0.00  0.00    +0.222 C 
ATOM     17  ND2 ASN A   2      23.478  38.630  37.681  0.00  0.00    -0.329 N 
ATOM     18 HD21 ASN A   2      23.480  37.812  38.323  0.00  0.00    +0.145 HD
ATOM     19 HD22 ASN A   2      23.934  39.519  37.970  0.00  0.00    +0.145 HD
ATOM     20  OD1 ASN A   2      22.343  37.515  36.110  0.00  0.00    -0.275 OA
ENDBRANCH  15  16
ENDBRANCH  12  15
ENDBRANCH   2  12
TORSDOF 8
REMARK  Name = ../refined-set-2016/3f8f/3f8f_pocket.pdb
REMARK  225 active torsions:
REMARK  status: ('A' for Active; 'I' for Inactive)
REMARK    1  A    between atoms: _1  and  _3
REMARK    2  A    between atoms: _3  and  _4
REMARK    3  A    between atoms: _3  and  _6
REMARK    4  A    between atoms: _6  and  _7
REMARK    5  A    between atoms: _11  and  _12
REMARK    6  A    between atoms: _17  and  _19
REMARK    7  A    between atoms: _19  and  _20
REMARK    8  A    between atoms: _19  and  _22
REMARK    9  A    between atoms: _22  and  _23
REMARK   10  A    between atoms: _23  and  _24
REMARK   11  A    between atoms: _27  and  _29
REMARK   12  A    between atoms: _29  and  _30
REMARK   13  A    between atoms: _29  and  _32
REMARK   14  A    between atoms: _32  and  _33
REMARK   15  A    between atoms: _33  and  _34
REMARK   16  A    between atoms: _36  and  _38
REMARK   17  A    between atoms: _38  and  _39
REMARK   18  A    between atoms: _38  and  _41
REMARK   19  A    between atoms: _41  and  _42
REMARK   20  A    between atoms: _45  and  _47
REMARK   21  A    between atoms: _47  and  _48
REMARK   22  A    between atoms: _47  and  _50
REMARK   23  A    between atoms: _50  and  _51
REMARK   24  A    between atoms: _51  and  _52
REMARK   25  A    between atoms: _52  and  _53
REMARK   26  A    between atoms: _62  and  _64
REMARK   27  A    between atoms: _64  and  _65
REMARK   28  A    between atoms: _68  and  _70
REMARK   29  A    between atoms: _70  and  _71
REMARK   30  A    between atoms: _70  and  _73
REMARK   31  A    between atoms: _73  and  _74
REMARK   32  A    between atoms: _74  and  _75
REMARK   33  A    between atoms: _80  and  _82
REMARK   34  A    between atoms: _82  and  _83
REMARK   35  A    between atoms: _82  and  _85
REMARK   36  A    between atoms: _85  and  _86
REMARK   37  A    between atoms: _91  and  _93
REMARK   38  A    between atoms: _93  and  _94
REMARK   39  A    between atoms: _93  and  _96
REMARK   40  A    between atoms: _99  and  _101
REMARK   41  A    between atoms: _101  and  _102
REMARK   42  A    between atoms: _101  and  _104
REMARK   43  A    between atoms: _104  and  _105
REMARK   44  A    between atoms: _108  and  _110
REMARK   45  A    between atoms: _110  and  _111
REMARK   46  A    between atoms: _110  and  _113
REMARK   47  A    between atoms: _113  and  _114
REMARK   48  A    between atoms: _117  and  _119
REMARK   49  A    between atoms: _119  and  _120
REMARK   50  A    between atoms: _119  and  _122
REMARK   51  A    between atoms: _122  and  _123
REMARK   52  A    between atoms: _128  and  _130
REMARK   53  A    between atoms: _130  and  _131
REMARK   54  A    between atoms: _130  and  _133
REMARK   55  A    between atoms: _133  and  _134
REMARK   56  A    between atoms: _134  and  _135
REMARK   57  A    between atoms: _135  and  _136
REMARK   58  A    between atoms: _136  and  _137
REMARK   59  A    between atoms: _141  and  _143
REMARK   60  A    between atoms: _143  and  _144
REMARK   61  A    between atoms: _146  and  _148
REMARK   62  A    between atoms: _148  and  _149
REMARK   63  A    between atoms: _148  and  _151
REMARK   64  A    between atoms: _151  and  _152
REMARK   65  A    between atoms: _157  and  _159
REMARK   66  A    between atoms: _159  and  _160
REMARK   67  A    between atoms: _159  and  _162
REMARK   68  A    between atoms: _162  and  _163
REMARK   69  A    between atoms: _163  and  _164
REMARK   70  A    between atoms: _167  and  _169
REMARK   71  A    between atoms: _169  and  _170
REMARK   72  A    between atoms: _169  and  _172
REMARK   73  A    between atoms: _172  and  _173
REMARK   74  A    between atoms: _178  and  _180
REMARK   75  A    between atoms: _180  and  _181
REMARK   76  A    between atoms: _180  and  _183
REMARK   77  A    between atoms: _183  and  _184
REMARK   78  A    between atoms: _184  and  _185
REMARK   79  A    between atoms: _187  and  _189
REMARK   80  A    between atoms: _189  and  _190
REMARK   81  A    between atoms: _189  and  _192
REMARK   82  A    between atoms: _192  and  _193
REMARK   83  A    between atoms: _193  and  _194
REMARK   84  A    between atoms: _194  and  _195
REMARK   85  A    between atoms: _204  and  _206
REMARK   86  A    between atoms: _206  and  _207
REMARK   87  A    between atoms: _206  and  _209
REMARK   88  A    between atoms: _209  and  _210
REMARK   89  A    between atoms: _213  and  _215
REMARK   90  A    between atoms: _215  and  _216
REMARK   91  A    between atoms: _219  and  _221
REMARK   92  A    between atoms: _221  and  _222
REMARK   93  A    between atoms: _221  and  _224
REMARK   94  A    between atoms: _224  and  _225
REMARK   95  A    between atoms: _231  and  _233
REMARK   96  A    between atoms: _233  and  _234
REMARK   97  A    between atoms: _233  and  _236
REMARK   98  A    between atoms: _236  and  _237
REMARK   99  A    between atoms: _237  and  _238
REMARK  100  A    between atoms: _241  and  _243
REMARK  101  A    between atoms: _243  and  _244
REMARK  102  A    between atoms: _243  and  _246
REMARK  103  A    between atoms: _246  and  _247
REMARK  104  A    between atoms: _249  and  _251
REMARK  105  A    between atoms: _251  and  _252
REMARK  106  A    between atoms: _251  and  _254
REMARK  107  A    between atoms: _254  and  _255
REMARK  108  A    between atoms: _265  and  _267
REMARK  109  A    between atoms: _267  and  _268
REMARK  110  A    between atoms: _267  and  _270
REMARK  111  A    between atoms: _270  and  _271
REMARK  112  A    between atoms: _273  and  _275
REMARK  113  A    between atoms: _275  and  _276
REMARK  114  A    between atoms: _275  and  _278
REMARK  115  A    between atoms: _281  and  _283
REMARK  116  A    between atoms: _283  and  _284
REMARK  117  A    between atoms: _283  and  _286
REMARK  118  A    between atoms: _286  and  _287
REMARK  119  A    between atoms: _290  and  _292
REMARK  120  A    between atoms: _292  and  _293
REMARK  121  A    between atoms: _292  and  _295
REMARK  122  A    between atoms: _295  and  _296
REMARK  123  A    between atoms: _299  and  _301
REMARK  124  A    between atoms: _301  and  _302
REMARK  125  A    between atoms: _301  and  _304
REMARK  126  A    between atoms: _304  and  _305
REMARK  127  A    between atoms: _305  and  _306
REMARK  128  A    between atoms: _309  and  _311
REMARK  129  A    between atoms: _311  and  _312
REMARK  130  A    between atoms: _311  and  _314
REMARK  131  A    between atoms: _314  and  _315
REMARK  132  A    between atoms: _315  and  _316
REMARK  133  A    between atoms: _318  and  _320
REMARK  134  A    between atoms: _320  and  _321
REMARK  135  A    between atoms: _320  and  _323
REMARK  136  A    between atoms: _323  and  _324
REMARK  137  A    between atoms: _327  and  _329
REMARK  138  A    between atoms: _329  and  _330
REMARK  139  A    between atoms: _329  and  _332
REMARK  140  A    between atoms: _332  and  _333
REMARK  141  A    between atoms: _333  and  _334
REMARK  142  A    between atoms: _334  and  _335
REMARK  143  A    between atoms: _344  and  _346
REMARK  144  A    between atoms: _346  and  _347
REMARK  145  A    between atoms: _350  and  _352
REMARK  146  A    between atoms: _352  and  _353
REMARK  147  A    between atoms: _352  and  _355
REMARK  148  A    between atoms: _355  and  _356
REMARK  149  A    between atoms: _356  and  _357
REMARK  150  A    between atoms: _362  and  _364
REMARK  151  A    between atoms: _364  and  _365
REMARK  152  A    between atoms: _364  and  _367
REMARK  153  A    between atoms: _367  and  _368
REMARK  154  A    between atoms: _373  and  _375
REMARK  155  A    between atoms: _375  and  _376
REMARK  156  A    between atoms: _375  and  _378
REMARK  157  A    between atoms: _381  and  _383
REMARK  158  A    between atoms: _383  and  _384
REMARK  159  A    between atoms: _383  and  _386
REMARK  160  A    between atoms: _386  and  _387
REMARK  161  A    between atoms: _390  and  _392
REMARK  162  A    between atoms: _392  and  _393
REMARK  163  A    between atoms: _392  and  _395
REMARK  164  A    between atoms: _395  and  _396
REMARK  165  A    between atoms: _399  and  _401
REMARK  166  A    between atoms: _401  and  _402
REMARK  167  A    between atoms: _401  and  _404
REMARK  168  A    between atoms: _404  and  _405
REMARK  169  A    between atoms: _410  and  _412
REMARK  170  A    between atoms: _412  and  _413
REMARK  171  A    between atoms: _412  and  _415
REMARK  172  A    between atoms: _415  and  _416
REMARK  173  A    between atoms: _421  and  _423
REMARK  174  A    between atoms: _423  and  _424
REMARK  175  A    between atoms: _423  and  _426
REMARK  176  A    between atoms: _426  and  _427
REMARK  177  A    between atoms: _427  and  _428
REMARK  178  A    between atoms: _430  and  _432
REMARK  179  A    between atoms: _432  and  _433
REMARK  180  A    between atoms: _432  and  _435
REMARK  181  A    between atoms: _435  and  _436
REMARK  182  A    between atoms: _439  and  _441
REMARK  183  A    between atoms: _441  and  _442
REMARK  184  A    between atoms: _445  and  _447
REMARK  185  A    between atoms: _447  and  _448
REMARK  186  A    between atoms: _447  and  _450
REMARK  187  A    between atoms: _450  and  _451
REMARK  188  A    between atoms: _457  and  _459
REMARK  189  A    between atoms: _459  and  _460
REMARK  190  A    between atoms: _459  and  _462
REMARK  191  A    between atoms: _462  and  _463
REMARK  192  A    between atoms: _463  and  _464
REMARK  193  A    between atoms: _467  and  _469
REMARK  194  A    between atoms: _469  and  _470
REMARK  195  A    between atoms: _469  and  _472
REMARK  196  A    between atoms: _472  and  _473
REMARK  197  A    between atoms: _475  and  _477
REMARK  198  A    between atoms: _477  and  _478
REMARK  199  A    between atoms: _477  and  _480
REMARK  200  A    between atoms: _480  and  _481
REMARK  201  A    between atoms: _491  and  _493
REMARK  202  A    between atoms: _493  and  _494
REMARK  203  A    between atoms: _493  and  _496
REMARK  204  A    between atoms: _496  and  _497
REMARK  205  A    between atoms: _499  and  _501
REMARK  206  A    between atoms: _501  and  _502
REMARK  207  A    between atoms: _501  and  _504
REMARK  208  A    between atoms: _507  and  _509
REMARK  209  A    between atoms: _509  and  _510
REMARK  210  A    between atoms: _509  and  _512
REMARK  211  A    between atoms: _512  and  _513
REMARK  212  A    between atoms: _516  and  _518
REMARK  213  A    between atoms: _518  and  _519
REMARK  214  A    between atoms: _518  and  _521
REMARK  215  A    between atoms: _521  and  _522
REMARK  216  A    between atoms: _525  and  _527
REMARK  217  A    between atoms: _527  and  _528
REMARK  218  A    between atoms: _527  and  _530
REMARK  219  A    between atoms: _530  and  _531
REMARK  220  A    between atoms: _531  and  _532
REMARK  221  A    between atoms: _535  and  _537
REMARK  222  A    between atoms: _537  and  _538
REMARK  223  A    between atoms: _537  and  _540
REMARK  224  A    between atoms: _540  and  _541
REMARK  225  A    between atoms: _541  and  _542
REMARK                            x       y       z     vdW  Elec       q    Type
REMARK                         _______ _______ _______ _____ _____    ______ ____
ROOT
ATOM      1  C   ASN A   1      30.807  33.471  40.332  0.00  0.00    +0.239 C 
ATOM      2  O   ASN A   1      30.333  33.383  41.489  0.00  0.00    -0.274 OA
ATOM      3  N   MET A   2      30.062  33.645  39.251  0.00  0.00    -0.298 N 
ATOM      4  H   MET A   2      30.530  33.744  38.328  0.00  0.00    +0.150 HD
ENDROOT
BRANCH   1   5
ATOM      5  CA  ASN A   1      32.317  33.389  40.080  0.00  0.00    +0.154 C 
BRANCH   5   6
ATOM      6  N   ASN A   1      32.589  32.638  38.872  0.00  0.00    -0.238 NA
ATOM      7  H   ASN A   1      33.094  33.096  38.086  0.00  0.00    +0.142 HD
ENDBRANCH   5   6
BRANCH   5   8
ATOM      8  CB  ASN A   1      32.909  34.798  39.970  0.00  0.00    +0.111 C 
BRANCH   8   9
ATOM      9  CG  ASN A   1      32.614  35.655  41.196  0.00  0.00    +0.221 C 
ATOM     10  OD1 ASN A   1      33.180  35.450  42.269  0.00  0.00    -0.275 OA
ATOM     11  ND2 ASN A   1      31.741  36.602  41.037  0.00  0.00    -0.329 N 
ATOM     12 HD21 ASN A   1      31.496  37.223  41.835  0.00  0.00    +0.145 HD
ATOM     13 HD22 ASN A   1      31.286  36.740  40.112  0.00  0.00    +0.145 HD
ENDBRANCH   8   9
ENDBRANCH   5   8
ENDBRANCH   1   5
BRANCH   3  14
ATOM     14  CA  MET A   2      28.645  33.700  39.313  0.00  0.00    +0.138 C 
BRANCH  14  15
ATOM     15  C   MET A   2      28.091  32.320  39.680  0.00  0.00    +0.227 C 
ATOM     16  O   MET A   2      27.181  32.211  40.496  0.00  0.00    -0.286 OA
ENDBRANCH  14  15
BRANCH  14  17
ATOM     17  CB  MET A   2      28.082  34.175  37.977  0.00  0.00    +0.039 C 
BRANCH  17  18
ATOM     18  CG  MET A   2      28.446  35.613  37.636  0.00  0.00    +0.060 C 
BRANCH  18  19
ATOM     19  SD  MET A   2      27.760  36.142  36.055  0.00  0.00    -0.139 S 
ATOM     20  CE  MET A   2      26.001  36.088  36.423  0.00  0.00    +0.069 C 
ENDBRANCH  18  19
ENDBRANCH  17  18
ENDBRANCH  14  17
ENDBRANCH   3  14
TORSDOF 9
REMARK  Name = ../refined-set-2016/3f8f/3f8f_pocket.pdb
REMARK  225 active torsions:
REMARK  status: ('A' for Active; 'I' for Inactive)
REMARK    1  A    between atoms: _1  and  _3
REMARK    2  A    between atoms: _3  and  _4
REMARK    3  A    between atoms: _3  and  _6
REMARK    4  A    between atoms: _6  and  _7
REMARK    5  A    between atoms: _11  and  _12
REMARK    6  A    between atoms: _17  and  _19
REMARK    7  A    between atoms: _19  and  _20
REMARK    8  A    between atoms: _19  and  _22
REMARK    9  A    between atoms: _22  and  _23
REMARK   10  A    between atoms: _23  and  _24
REMARK   11  A    between atoms: _27  and  _29
REMARK   12  A    between atoms: _29  and  _30
REMARK   13  A    between atoms: _29  and  _32
REMARK   14  A    between atoms: _32  and  _33
REMARK   15  A    between atoms: _33  and  _34
REMARK   16  A    between atoms: _36  and  _38
REMARK   17  A    between atoms: _38  and  _39
REMARK   18  A    between atoms: _38  and  _41
REMARK   19  A    between atoms: _41  and  _42
REMARK   20  A    between atoms: _45  and  _47
REMARK   21  A    between atoms: _47  and  _48
REMARK   22  A    between atoms: _47  and  _50
REMARK   23  A    between atoms: _50  and  _51
REMARK   24  A    between atoms: _51  and  _52
REMARK   25  A    between atoms: _52  and  _53
REMARK   26  A    between atoms: _62  and  _64
REMARK   27  A    between atoms: _64  and  _65
REMARK   28  A    between atoms: _68  and  _70
REMARK   29  A    between atoms: _70  and  _71
REMARK   30  A    between atoms: _70  and  _73
REMARK   31  A    between atoms: _73  and  _74
REMARK   32  A    between atoms: _74  and  _75
REMARK   33  A    between atoms: _80  and  _82
REMARK   34  A    between atoms: _82  and  _83
REMARK   35  A    between atoms: _82  and  _85
REMARK   36  A    between atoms: _85  and  _86
REMARK   37  A    between atoms: _91  and  _93
REMARK   38  A    between atoms: _93  and  _94
REMARK   39  A    between atoms: _93  and  _96
REMARK   40  A    between atoms: _99  and  _101
REMARK   41  A    between atoms: _101  and  _102
REMARK   42  A    between atoms: _101  and  _104
REMARK   43  A    between atoms: _104  and  _105
REMARK   44  A    between atoms: _108  and  _110
REMARK   45  A    between atoms: _110  and  _111
REMARK   46  A    between atoms: _110  and  _113
REMARK   47  A    between atoms: _113  and  _114
REMARK   48  A    between atoms: _117  and  _119
REMARK   49  A    between atoms: _119  and  _120
REMARK   50  A    between atoms: _119  and  _122
REMARK   51  A    between atoms: _122  and  _123
REMARK   52  A    between atoms: _128  and  _130
REMARK   53  A    between atoms: _130  and  _131
REMARK   54  A    between atoms: _130  and  _133
REMARK   55  A    between atoms: _133  and  _134
REMARK   56  A    between atoms: _134  and  _135
REMARK   57  A    between atoms: _135  and  _136
REMARK   58  A    between atoms: _136  and  _137
REMARK   59  A    between atoms: _141  and  _143
REMARK   60  A    between atoms: _143  and  _144
REMARK   61  A    between atoms: _146  and  _148
REMARK   62  A    between atoms: _148  and  _149
REMARK   63  A    between atoms: _148  and  _151
REMARK   64  A    between atoms: _151  and  _152
REMARK   65  A    between atoms: _157  and  _159
REMARK   66  A    between atoms: _159  and  _160
REMARK   67  A    between atoms: _159  and  _162
REMARK   68  A    between atoms: _162  and  _163
REMARK   69  A    between atoms: _163  and  _164
REMARK   70  A    between atoms: _167  and  _169
REMARK   71  A    between atoms: _169  and  _170
REMARK   72  A    between atoms: _169  and  _172
REMARK   73  A    between atoms: _172  and  _173
REMARK   74  A    between atoms: _178  and  _180
REMARK   75  A    between atoms: _180  and  _181
REMARK   76  A    between atoms: _180  and  _183
REMARK   77  A    between atoms: _183  and  _184
REMARK   78  A    between atoms: _184  and  _185
REMARK   79  A    between atoms: _187  and  _189
REMARK   80  A    between atoms: _189  and  _190
REMARK   81  A    between atoms: _189  and  _192
REMARK   82  A    between atoms: _192  and  _193
REMARK   83  A    between atoms: _193  and  _194
REMARK   84  A    between atoms: _194  and  _195
REMARK   85  A    between atoms: _204  and  _206
REMARK   86  A    between atoms: _206  and  _207
REMARK   87  A    between atoms: _206  and  _209
REMARK   88  A    between atoms: _209  and  _210
REMARK   89  A    between atoms: _213  and  _215
REMARK   90  A    between atoms: _215  and  _216
REMARK   91  A    between atoms: _219  and  _221
REMARK   92  A    between atoms: _221  and  _222
REMARK   93  A    between atoms: _221  and  _224
REMARK   94  A    between atoms: _224  and  _225
REMARK   95  A    between atoms: _231  and  _233
REMARK   96  A    between atoms: _233  and  _234
REMARK   97  A    between atoms: _233  and  _236
REMARK   98  A    between atoms: _236  and  _237
REMARK   99  A    between atoms: _237  and  _238
REMARK  100  A    between atoms: _241  and  _243
REMARK  101  A    between atoms: _243  and  _244
REMARK  102  A    between atoms: _243  and  _246
REMARK  103  A    between atoms: _246  and  _247
REMARK  104  A    between atoms: _249  and  _251
REMARK  105  A    between atoms: _251  and  _252
REMARK  106  A    between atoms: _251  and  _254
REMARK  107  A    between atoms: _254  and  _255
REMARK  108  A    between atoms: _265  and  _267
REMARK  109  A    between atoms: _267  and  _268
REMARK  110  A    between atoms: _267  and  _270
REMARK  111  A    between atoms: _270  and  _271
REMARK  112  A    between atoms: _273  and  _275
REMARK  113  A    between atoms: _275  and  _276
REMARK  114  A    between atoms: _275  and  _278
REMARK  115  A    between atoms: _281  and  _283
REMARK  116  A    between atoms: _283  and  _284
REMARK  117  A    between atoms: _283  and  _286
REMARK  118  A    between atoms: _286  and  _287
REMARK  119  A    between atoms: _290  and  _292
REMARK  120  A    between atoms: _292  and  _293
REMARK  121  A    between atoms: _292  and  _295
REMARK  122  A    between atoms: _295  and  _296
REMARK  123  A    between atoms: _299  and  _301
REMARK  124  A    between atoms: _301  and  _302
REMARK  125  A    between atoms: _301  and  _304
REMARK  126  A    between atoms: _304  and  _305
REMARK  127  A    between atoms: _305  and  _306
REMARK  128  A    between atoms: _309  and  _311
REMARK  129  A    between atoms: _311  and  _312
REMARK  130  A    between atoms: _311  and  _314
REMARK  131  A    between atoms: _314  and  _315
REMARK  132  A    between atoms: _315  and  _316
REMARK  133  A    between atoms: _318  and  _320
REMARK  134  A    between atoms: _320  and  _321
REMARK  135  A    between atoms: _320  and  _323
REMARK  136  A    between atoms: _323  and  _324
REMARK  137  A    between atoms: _327  and  _329
REMARK  138  A    between atoms: _329  and  _330
REMARK  139  A    between atoms: _329  and  _332
REMARK  140  A    between atoms: _332  and  _333
REMARK  141  A    between atoms: _333  and  _334
REMARK  142  A    between atoms: _334  and  _335
REMARK  143  A    between atoms: _344  and  _346
REMARK  144  A    between atoms: _346  and  _347
REMARK  145  A    between atoms: _350  and  _352
REMARK  146  A    between atoms: _352  and  _353
REMARK  147  A    between atoms: _352  and  _355
REMARK  148  A    between atoms: _355  and  _356
REMARK  149  A    between atoms: _356  and  _357
REMARK  150  A    between atoms: _362  and  _364
REMARK  151  A    between atoms: _364  and  _365
REMARK  152  A    between atoms: _364  and  _367
REMARK  153  A    between atoms: _367  and  _368
REMARK  154  A    between atoms: _373  and  _375
REMARK  155  A    between atoms: _375  and  _376
REMARK  156  A    between atoms: _375  and  _378
REMARK  157  A    between atoms: _381  and  _383
REMARK  158  A    between atoms: _383  and  _384
REMARK  159  A    between atoms: _383  and  _386
REMARK  160  A    between atoms: _386  and  _387
REMARK  161  A    between atoms: _390  and  _392
REMARK  162  A    between atoms: _392  and  _393
REMARK  163  A    between atoms: _392  and  _395
REMARK  164  A    between atoms: _395  and  _396
REMARK  165  A    between atoms: _399  and  _401
REMARK  166  A    between atoms: _401  and  _402
REMARK  167  A    between atoms: _401  and  _404
REMARK  168  A    between atoms: _404  and  _405
REMARK  169  A    between atoms: _410  and  _412
REMARK  170  A    between atoms: _412  and  _413
REMARK  171  A    between atoms: _412  and  _415
REMARK  172  A    between atoms: _415  and  _416
REMARK  173  A    between atoms: _421  and  _423
REMARK  174  A    between atoms: _423  and  _424
REMARK  175  A    between atoms: _423  and  _426
REMARK  176  A    between atoms: _426  and  _427
REMARK  177  A    between atoms: _427  and  _428
REMARK  178  A    between atoms: _430  and  _432
REMARK  179  A    between atoms: _432  and  _433
REMARK  180  A    between atoms: _432  and  _435
REMARK  181  A    between atoms: _435  and  _436
REMARK  182  A    between atoms: _439  and  _441
REMARK  183  A    between atoms: _441  and  _442
REMARK  184  A    between atoms: _445  and  _447
REMARK  185  A    between atoms: _447  and  _448
REMARK  186  A    between atoms: _447  and  _450
REMARK  187  A    between atoms: _450  and  _451
REMARK  188  A    between atoms: _457  and  _459
REMARK  189  A    between atoms: _459  and  _460
REMARK  190  A    between atoms: _459  and  _462
REMARK  191  A    between atoms: _462  and  _463
REMARK  192  A    between atoms: _463  and  _464
REMARK  193  A    between atoms: _467  and  _469
REMARK  194  A    between atoms: _469  and  _470
REMARK  195  A    between atoms: _469  and  _472
REMARK  196  A    between atoms: _472  and  _473
REMARK  197  A    between atoms: _475  and  _477
REMARK  198  A    between atoms: _477  and  _478
REMARK  199  A    between atoms: _477  and  _480
REMARK  200  A    between atoms: _480  and  _481
REMARK  201  A    between atoms: _491  and  _493
REMARK  202  A    between atoms: _493  and  _494
REMARK  203  A    between atoms: _493  and  _496
REMARK  204  A    between atoms: _496  and  _497
REMARK  205  A    between atoms: _499  and  _501
REMARK  206  A    between atoms: _501  and  _502
REMARK  207  A    between atoms: _501  and  _504
REMARK  208  A    between atoms: _507  and  _509
REMARK  209  A    between atoms: _509  and  _510
REMARK  210  A    between atoms: _509  and  _512
REMARK  211  A    between atoms: _512  and  _513
REMARK  212  A    between atoms: _516  and  _518
REMARK  213  A    between atoms: _518  and  _519
REMARK  214  A    between atoms: _518  and  _521
REMARK  215  A    between atoms: _521  and  _522
REMARK  216  A    between atoms: _525  and  _527
REMARK  217  A    between atoms: _527  and  _528
REMARK  218  A    between atoms: _527  and  _530
REMARK  219  A    between atoms: _530  and  _531
REMARK  220  A    between atoms: _531  and  _532
REMARK  221  A    between atoms: _535  and  _537
REMARK  222  A    between atoms: _537  and  _538
REMARK  223  A    between atoms: _537  and  _540
REMARK  224  A    between atoms: _540  and  _541
REMARK  225  A    between atoms: _541  and  _542
REMARK                            x       y       z     vdW  Elec       q    Type
REMARK                         _______ _______ _______ _____ _____    ______ ____
ROOT
ATOM      1  CA  GLU A   4      26.129  27.620  44.809  0.00  0.00    +0.149 C 
ENDROOT
BRANCH   1   4
ATOM      2  C   PHE A   3      24.881  29.575  44.175  0.00  0.00    +0.241 C 
ATOM      3  O   PHE A   3      23.957  29.232  44.890  0.00  0.00    -0.273 OA
ATOM      4  N   GLU A   4      26.001  28.873  44.079  0.00  0.00    -0.297 N 
ATOM      5  H   GLU A   4      26.784  29.215  43.486  0.00  0.00    +0.150 HD
BRANCH   2   6
ATOM      6  CA  PHE A   3      24.774  30.862  43.333  0.00  0.00    +0.153 C 
BRANCH   6   9
ATOM      7  C   ALA A   2      26.596  32.017  44.399  0.00  0.00    +0.241 C 
ATOM      8  O   ALA A   2      26.080  31.882  45.524  0.00  0.00    -0.273 OA
ATOM      9  N   PHE A   3      26.011  31.588  43.274  0.00  0.00    -0.297 N 
ATOM     10  H   PHE A   3      26.455  31.781  42.353  0.00  0.00    +0.150 HD
BRANCH   7  11
ATOM     11  CA  ALA A   2      27.960  32.679  44.248  0.00  0.00    +0.149 C 
ATOM     12  CB  ALA A   2      27.831  34.079  43.595  0.00  0.00    +0.031 C 
BRANCH  11  15
ATOM     13  C   LEU A   1      29.153  30.610  43.885  0.00  0.00    +0.238 C 
ATOM     14  O   LEU A   1      28.842  30.159  44.991  0.00  0.00    -0.274 OA
ATOM     15  N   ALA A   2      28.800  31.840  43.466  0.00  0.00    -0.297 N 
ATOM     16  H   ALA A   2      29.150  32.184  42.549  0.00  0.00    +0.150 HD
BRANCH  13  17
ATOM     17  CA  LEU A   1      29.991  29.791  42.923  0.00  0.00    +0.145 C 
BRANCH  17  18
ATOM     18  N   LEU A   1      29.635  30.046  41.516  0.00  0.00    -0.238 NA
ATOM     19  H   LEU A   1      30.314  30.551  40.912  0.00  0.00    +0.142 HD
ENDBRANCH  17  18
BRANCH  17  20
ATOM     20  CB  LEU A   1      31.464  30.125  43.165  0.00  0.00    +0.026 C 
BRANCH  20  21
ATOM     21  CG  LEU A   1      32.525  29.126  42.744  0.00  0.00    +0.002 C 
ATOM     22  CD2 LEU A   1      32.461  27.842  43.604  0.00  0.00    +0.000 C 
ATOM     23  CD1 LEU A   1      33.886  29.770  42.848  0.00  0.00    +0.000 C 
ENDBRANCH  20  21
ENDBRANCH  17  20
ENDBRANCH  13  17
ENDBRANCH  11  15
ENDBRANCH   7  11
ENDBRANCH   6   9
BRANCH   6  24
ATOM     24  CB  PHE A   3      24.220  30.500  41.930  0.00  0.00    +0.055 C 
BRANCH  24  25
ATOM     25  CG  PHE A   3      23.075  29.555  41.991  0.00  0.00    -0.020 A 
ATOM     26  CD2 PHE A   3      21.788  30.020  42.263  0.00  0.00    -0.004 A 
ATOM     27  CE2 PHE A   3      20.716  29.143  42.338  0.00  0.00    -0.000 A 
ATOM     28  CZ  PHE A   3      20.916  27.781  42.148  0.00  0.00    -0.000 A 
ATOM     29  CE1 PHE A   3      22.203  27.299  41.882  0.00  0.00    -0.000 A 
ATOM     30  CD1 PHE A   3      23.271  28.187  41.808  0.00  0.00    -0.004 A 
ENDBRANCH  24  25
ENDBRANCH   6  24
ENDBRANCH   2   6
ENDBRANCH   1   4
BRANCH   1  31
ATOM     31  C   GLU A   4      26.286  27.861  46.333  0.00  0.00    +0.241 C 
ATOM     32  O   GLU A   4      25.749  27.123  47.137  0.00  0.00    -0.273 OA
ATOM     33  N   SER A   5      27.021  28.904  46.702  0.00  0.00    -0.295 N 
ATOM     34  H   SER A   5      27.397  29.549  45.978  0.00  0.00    +0.150 HD
BRANCH  33  35
ATOM     35  CA  SER A   5      27.306  29.154  48.099  0.00  0.00    +0.178 C 
BRANCH  35  36
ATOM     36  C   SER A   5      26.091  29.747  48.805  0.00  0.00    +0.243 C 
ATOM     37  O   SER A   5      25.833  29.430  49.959  0.00  0.00    -0.273 OA
ATOM     38  N   TRP A   6      25.343  30.612  48.090  0.00  0.00    -0.297 N 
ATOM     39  H   TRP A   6      25.672  30.905  47.148  0.00  0.00    +0.150 HD
BRANCH  38  40
ATOM     40  CA  TRP A   6      24.078  31.151  48.603  0.00  0.00    +0.153 C 
BRANCH  40  41
ATOM     41  C   TRP A   6      22.974  30.088  48.684  0.00  0.00    +0.241 C 
ATOM     42  O   TRP A   6      22.130  30.137  49.563  0.00  0.00    -0.273 OA
ATOM     43  N   SER A   7      22.995  29.137  47.771  0.00  0.00    -0.296 N 
ATOM     44  H   SER A   7      23.660  29.205  46.974  0.00  0.00    +0.150 HD
BRANCH  43  45
ATOM     45  CA  SER A   7      22.105  27.999  47.862  0.00  0.00    +0.166 C 
BRANCH  45  46
ATOM     46  CB  SER A   7      22.407  27.220  49.121  0.00  0.00    +0.229 C 
ATOM     47  OG  SER A   7      21.503  26.719  49.782  0.00  0.00    -0.286 OA
ENDBRANCH  45  46
BRANCH  45  48
ATOM     48  C   SER A   7      22.270  27.100  46.661  0.00  0.00    +0.165 C 
BRANCH  48  49
ATOM     49  O   SER A   7      21.811  27.730  45.504  0.00  0.00    -0.380 OA
ATOM     50  H   SER A   7      22.328  28.561  45.355  0.00  0.00    +0.211 HD
ENDBRANCH  48  49
ENDBRANCH  45  48
ENDBRANCH  43  45
ENDBRANCH  40  41
BRANCH  40  51
ATOM     51  CB  TRP A   6      23.609  32.353  47.771  0.00  0.00    +0.057 C 
BRANCH  51  52
ATOM     52  CG  TRP A   6      24.280  33.697  48.191  0.00  0.00    -0.002 A 
ATOM     53  CD2 TRP A   6      24.039  34.441  49.394  0.00  0.00    +0.013 A 
ATOM     54  CE3 TRP A   6      23.209  34.251  50.500  0.00  0.00    +0.001 A 
ATOM     55  CZ3 TRP A   6      23.230  35.205  51.526  0.00  0.00    +0.000 A 
ATOM     56  CH2 TRP A   6      24.051  36.321  51.454  0.00  0.00    +0.001 A 
ATOM     57  CZ2 TRP A   6      24.878  36.534  50.378  0.00  0.00    +0.017 A 
ATOM     58  CE2 TRP A   6      24.863  35.585  49.352  0.00  0.00    +0.056 A 
ATOM     59  NE1 TRP A   6      25.572  35.540  48.182  0.00  0.00    -0.352 N 
ATOM     60  HE1 TRP A   6      26.267  36.247  47.868  0.00  0.00    +0.166 HD
ATOM     61  CD1 TRP A   6      25.214  34.402  47.488  0.00  0.00    +0.068 A 
ENDBRANCH  51  52
ENDBRANCH  40  51
ENDBRANCH  38  40
ENDBRANCH  35  36
BRANCH  35  62
ATOM     62  CB  SER A   5      28.530  30.066  48.261  0.00  0.00    +0.166 C 
BRANCH  62  63
ATOM     63  OG  SER A   5      28.400  31.236  47.492  0.00  0.00    -0.380 OA
ATOM     64  H   SER A   5      28.311  30.993  46.536  0.00  0.00    +0.211 HD
ENDBRANCH  62  63
ENDBRANCH  35  62
ENDBRANCH  33  35
ENDBRANCH   1  31
BRANCH   1  65
ATOM     65  CB  GLU A   4      27.284  26.780  44.262  0.00  0.00    +0.041 C 
BRANCH  65  66
ATOM     66  CG  GLU A   4      27.095  26.344  42.801  0.00  0.00    +0.116 C 
BRANCH  66  67
ATOM     67  CD  GLU A   4      28.358  25.683  42.207  0.00  0.00    +0.365 C 
ATOM     68  OE2 GLU A   4      29.301  25.395  42.977  0.00  0.00    -0.246 OA
ATOM     69  OE1 GLU A   4      28.394  25.457  40.974  0.00  0.00    -0.246 OA
ENDBRANCH  66  67
ENDBRANCH  65  66
ENDBRANCH   1  65
TORSDOF 27
REMARK  Name = ../refined-set-2016/3f8f/3f8f_pocket.pdb
REMARK  225 active torsions:
REMARK  status: ('A' for Active; 'I' for Inactive)
REMARK    1  A    between atoms: _1  and  _3
REMARK    2  A    between atoms: _3  and  _4
REMARK    3  A    between atoms: _3  and  _6
REMARK    4  A    between atoms: _6  and  _7
REMARK    5  A    between atoms: _11  and  _12
REMARK    6  A    between atoms: _17  and  _19
REMARK    7  A    between atoms: _19  and  _20
REMARK    8  A    between atoms: _19  and  _22
REMARK    9  A    between atoms: _22  and  _23
REMARK   10  A    between atoms: _23  and  _24
REMARK   11  A    between atoms: _27  and  _29
REMARK   12  A    between atoms: _29  and  _30
REMARK   13  A    between atoms: _29  and  _32
REMARK   14  A    between atoms: _32  and  _33
REMARK   15  A    between atoms: _33  and  _34
REMARK   16  A    between atoms: _36  and  _38
REMARK   17  A    between atoms: _38  and  _39
REMARK   18  A    between atoms: _38  and  _41
REMARK   19  A    between atoms: _41  and  _42
REMARK   20  A    between atoms: _45  and  _47
REMARK   21  A    between atoms: _47  and  _48
REMARK   22  A    between atoms: _47  and  _50
REMARK   23  A    between atoms: _50  and  _51
REMARK   24  A    between atoms: _51  and  _52
REMARK   25  A    between atoms: _52  and  _53
REMARK   26  A    between atoms: _62  and  _64
REMARK   27  A    between atoms: _64  and  _65
REMARK   28  A    between atoms: _68  and  _70
REMARK   29  A    between atoms: _70  and  _71
REMARK   30  A    between atoms: _70  and  _73
REMARK   31  A    between atoms: _73  and  _74
REMARK   32  A    between atoms: _74  and  _75
REMARK   33  A    between atoms: _80  and  _82
REMARK   34  A    between atoms: _82  and  _83
REMARK   35  A    between atoms: _82  and  _85
REMARK   36  A    between atoms: _85  and  _86
REMARK   37  A    between atoms: _91  and  _93
REMARK   38  A    between atoms: _93  and  _94
REMARK   39  A    between atoms: _93  and  _96
REMARK   40  A    between atoms: _99  and  _101
REMARK   41  A    between atoms: _101  and  _102
REMARK   42  A    between atoms: _101  and  _104
REMARK   43  A    between atoms: _104  and  _105
REMARK   44  A    between atoms: _108  and  _110
REMARK   45  A    between atoms: _110  and  _111
REMARK   46  A    between atoms: _110  and  _113
REMARK   47  A    between atoms: _113  and  _114
REMARK   48  A    between atoms: _117  and  _119
REMARK   49  A    between atoms: _119  and  _120
REMARK   50  A    between atoms: _119  and  _122
REMARK   51  A    between atoms: _122  and  _123
REMARK   52  A    between atoms: _128  and  _130
REMARK   53  A    between atoms: _130  and  _131
REMARK   54  A    between atoms: _130  and  _133
REMARK   55  A    between atoms: _133  and  _134
REMARK   56  A    between atoms: _134  and  _135
REMARK   57  A    between atoms: _135  and  _136
REMARK   58  A    between atoms: _136  and  _137
REMARK   59  A    between atoms: _141  and  _143
REMARK   60  A    between atoms: _143  and  _144
REMARK   61  A    between atoms: _146  and  _148
REMARK   62  A    between atoms: _148  and  _149
REMARK   63  A    between atoms: _148  and  _151
REMARK   64  A    between atoms: _151  and  _152
REMARK   65  A    between atoms: _157  and  _159
REMARK   66  A    between atoms: _159  and  _160
REMARK   67  A    between atoms: _159  and  _162
REMARK   68  A    between atoms: _162  and  _163
REMARK   69  A    between atoms: _163  and  _164
REMARK   70  A    between atoms: _167  and  _169
REMARK   71  A    between atoms: _169  and  _170
REMARK   72  A    between atoms: _169  and  _172
REMARK   73  A    between atoms: _172  and  _173
REMARK   74  A    between atoms: _178  and  _180
REMARK   75  A    between atoms: _180  and  _181
REMARK   76  A    between atoms: _180  and  _183
REMARK   77  A    between atoms: _183  and  _184
REMARK   78  A    between atoms: _184  and  _185
REMARK   79  A    between atoms: _187  and  _189
REMARK   80  A    between atoms: _189  and  _190
REMARK   81  A    between atoms: _189  and  _192
REMARK   82  A    between atoms: _192  and  _193
REMARK   83  A    between atoms: _193  and  _194
REMARK   84  A    between atoms: _194  and  _195
REMARK   85  A    between atoms: _204  and  _206
REMARK   86  A    between atoms: _206  and  _207
REMARK   87  A    between atoms: _206  and  _209
REMARK   88  A    between atoms: _209  and  _210
REMARK   89  A    between atoms: _213  and  _215
REMARK   90  A    between atoms: _215  and  _216
REMARK   91  A    between atoms: _219  and  _221
REMARK   92  A    between atoms: _221  and  _222
REMARK   93  A    between atoms: _221  and  _224
REMARK   94  A    between atoms: _224  and  _225
REMARK   95  A    between atoms: _231  and  _233
REMARK   96  A    between atoms: _233  and  _234
REMARK   97  A    between atoms: _233  and  _236
REMARK   98  A    between atoms: _236  and  _237
REMARK   99  A    between atoms: _237  and  _238
REMARK  100  A    between atoms: _241  and  _243
REMARK  101  A    between atoms: _243  and  _244
REMARK  102  A    between atoms: _243  and  _246
REMARK  103  A    between atoms: _246  and  _247
REMARK  104  A    between atoms: _249  and  _251
REMARK  105  A    between atoms: _251  and  _252
REMARK  106  A    between atoms: _251  and  _254
REMARK  107  A    between atoms: _254  and  _255
REMARK  108  A    between atoms: _265  and  _267
REMARK  109  A    between atoms: _267  and  _268
REMARK  110  A    between atoms: _267  and  _270
REMARK  111  A    between atoms: _270  and  _271
REMARK  112  A    between atoms: _273  and  _275
REMARK  113  A    between atoms: _275  and  _276
REMARK  114  A    between atoms: _275  and  _278
REMARK  115  A    between atoms: _281  and  _283
REMARK  116  A    between atoms: _283  and  _284
REMARK  117  A    between atoms: _283  and  _286
REMARK  118  A    between atoms: _286  and  _287
REMARK  119  A    between atoms: _290  and  _292
REMARK  120  A    between atoms: _292  and  _293
REMARK  121  A    between atoms: _292  and  _295
REMARK  122  A    between atoms: _295  and  _296
REMARK  123  A    between atoms: _299  and  _301
REMARK  124  A    between atoms: _301  and  _302
REMARK  125  A    between atoms: _301  and  _304
REMARK  126  A    between atoms: _304  and  _305
REMARK  127  A    between atoms: _305  and  _306
REMARK  128  A    between atoms: _309  and  _311
REMARK  129  A    between atoms: _311  and  _312
REMARK  130  A    between atoms: _311  and  _314
REMARK  131  A    between atoms: _314  and  _315
REMARK  132  A    between atoms: _315  and  _316
REMARK  133  A    between atoms: _318  and  _320
REMARK  134  A    between atoms: _320  and  _321
REMARK  135  A    between atoms: _320  and  _323
REMARK  136  A    between atoms: _323  and  _324
REMARK  137  A    between atoms: _327  and  _329
REMARK  138  A    between atoms: _329  and  _330
REMARK  139  A    between atoms: _329  and  _332
REMARK  140  A    between atoms: _332  and  _333
REMARK  141  A    between atoms: _333  and  _334
REMARK  142  A    between atoms: _334  and  _335
REMARK  143  A    between atoms: _344  and  _346
REMARK  144  A    between atoms: _346  and  _347
REMARK  145  A    between atoms: _350  and  _352
REMARK  146  A    between atoms: _352  and  _353
REMARK  147  A    between atoms: _352  and  _355
REMARK  148  A    between atoms: _355  and  _356
REMARK  149  A    between atoms: _356  and  _357
REMARK  150  A    between atoms: _362  and  _364
REMARK  151  A    between atoms: _364  and  _365
REMARK  152  A    between atoms: _364  and  _367
REMARK  153  A    between atoms: _367  and  _368
REMARK  154  A    between atoms: _373  and  _375
REMARK  155  A    between atoms: _375  and  _376
REMARK  156  A    between atoms: _375  and  _378
REMARK  157  A    between atoms: _381  and  _383
REMARK  158  A    between atoms: _383  and  _384
REMARK  159  A    between atoms: _383  and  _386
REMARK  160  A    between atoms: _386  and  _387
REMARK  161  A    between atoms: _390  and  _392
REMARK  162  A    between atoms: _392  and  _393
REMARK  163  A    between atoms: _392  and  _395
REMARK  164  A    between atoms: _395  and  _396
REMARK  165  A    between atoms: _399  and  _401
REMARK  166  A    between atoms: _401  and  _402
REMARK  167  A    between atoms: _401  and  _404
REMARK  168  A    between atoms: _404  and  _405
REMARK  169  A    between atoms: _410  and  _412
REMARK  170  A    between atoms: _412  and  _413
REMARK  171  A    between atoms: _412  and  _415
REMARK  172  A    between atoms: _415  and  _416
REMARK  173  A    between atoms: _421  and  _423
REMARK  174  A    between atoms: _423  and  _424
REMARK  175  A    between atoms: _423  and  _426
REMARK  176  A    between atoms: _426  and  _427
REMARK  177  A    between atoms: _427  and  _428
REMARK  178  A    between atoms: _430  and  _432
REMARK  179  A    between atoms: _432  and  _433
REMARK  180  A    between atoms: _432  and  _435
REMARK  181  A    between atoms: _435  and  _436
REMARK  182  A    between atoms: _439  and  _441
REMARK  183  A    between atoms: _441  and  _442
REMARK  184  A    between atoms: _445  and  _447
REMARK  185  A    between atoms: _447  and  _448
REMARK  186  A    between atoms: _447  and  _450
REMARK  187  A    between atoms: _450  and  _451
REMARK  188  A    between atoms: _457  and  _459
REMARK  189  A    between atoms: _459  and  _460
REMARK  190  A    between atoms: _459  and  _462
REMARK  191  A    between atoms: _462  and  _463
REMARK  192  A    between atoms: _463  and  _464
REMARK  193  A    between atoms: _467  and  _469
REMARK  194  A    between atoms: _469  and  _470
REMARK  195  A    between atoms: _469  and  _472
REMARK  196  A    between atoms: _472  and  _473
REMARK  197  A    between atoms: _475  and  _477
REMARK  198  A    between atoms: _477  and  _478
REMARK  199  A    between atoms: _477  and  _480
REMARK  200  A    between atoms: _480  and  _481
REMARK  201  A    between atoms: _491  and  _493
REMARK  202  A    between atoms: _493  and  _494
REMARK  203  A    between atoms: _493  and  _496
REMARK  204  A    between atoms: _496  and  _497
REMARK  205  A    between atoms: _499  and  _501
REMARK  206  A    between atoms: _501  and  _502
REMARK  207  A    between atoms: _501  and  _504
REMARK  208  A    between atoms: _507  and  _509
REMARK  209  A    between atoms: _509  and  _510
REMARK  210  A    between atoms: _509  and  _512
REMARK  211  A    between atoms: _512  and  _513
REMARK  212  A    between atoms: _516  and  _518
REMARK  213  A    between atoms: _518  and  _519
REMARK  214  A    between atoms: _518  and  _521
REMARK  215  A    between atoms: _521  and  _522
REMARK  216  A    between atoms: _525  and  _527
REMARK  217  A    between atoms: _527  and  _528
REMARK  218  A    between atoms: _527  and  _530
REMARK  219  A    between atoms: _530  and  _531
REMARK  220  A    between atoms: _531  and  _532
REMARK  221  A    between atoms: _535  and  _537
REMARK  222  A    between atoms: _537  and  _538
REMARK  223  A    between atoms: _537  and  _540
REMARK  224  A    between atoms: _540  and  _541
REMARK  225  A    between atoms: _541  and  _542
REMARK                            x       y       z     vdW  Elec       q    Type
REMARK                         _______ _______ _______ _____ _____    ______ ____
ROOT
ATOM      1  C   VAL A   1      21.795  28.985  53.167  0.00  0.00    +0.238 C 
ATOM      2  O   VAL A   1      21.342  28.811  54.303  0.00  0.00    -0.274 OA
ATOM      3  N   ASP A   2      21.033  28.975  52.061  0.00  0.00    -0.298 N 
ATOM      4  H   ASP A   2      21.491  29.113  51.138  0.00  0.00    +0.150 HD
ENDROOT
BRANCH   1   5
ATOM      5  CA  VAL A   1      23.311  29.216  52.949  0.00  0.00    +0.145 C 
BRANCH   5   6
ATOM      6  CB  VAL A   1      23.606  30.740  52.663  0.00  0.00    +0.025 C 
ATOM      7  CG2 VAL A   1      22.820  31.643  53.620  0.00  0.00    +0.002 C 
ATOM      8  CG1 VAL A   1      25.079  31.005  52.763  0.00  0.00    +0.002 C 
ENDBRANCH   5   6
BRANCH   5   9
ATOM      9  N   VAL A   1      23.818  28.388  51.870  0.00  0.00    -0.238 NA
ATOM     10  H   VAL A   1      24.285  28.848  51.062  0.00  0.00    +0.142 HD
ENDBRANCH   5   9
ENDBRANCH   1   5
BRANCH   3  11
ATOM     11  CA  ASP A   2      19.599  28.779  52.104  0.00  0.00    +0.148 C 
BRANCH  11  12
ATOM     12  C   ASP A   2      19.193  27.443  52.739  0.00  0.00    +0.227 C 
ATOM     13  O   ASP A   2      18.227  27.383  53.532  0.00  0.00    -0.286 OA
ENDBRANCH  11  12
BRANCH  11  14
ATOM     14  CB  ASP A   2      19.020  28.872  50.712  0.00  0.00    +0.142 C 
BRANCH  14  15
ATOM     15  CG  ASP A   2      18.970  30.291  50.200  0.00  0.00    +0.367 C 
ATOM     16  OD2 ASP A   2      19.265  31.231  50.997  0.00  0.00    -0.246 OA
ATOM     17  OD1 ASP A   2      18.636  30.480  48.995  0.00  0.00    -0.246 OA
ENDBRANCH  14  15
ENDBRANCH  11  14
ENDBRANCH   3  11
TORSDOF 7
REMARK  Name = ../refined-set-2016/3f8f/3f8f_pocket.pdb
REMARK  225 active torsions:
REMARK  status: ('A' for Active; 'I' for Inactive)
REMARK    1  A    between atoms: _1  and  _3
REMARK    2  A    between atoms: _3  and  _4
REMARK    3  A    between atoms: _3  and  _6
REMARK    4  A    between atoms: _6  and  _7
REMARK    5  A    between atoms: _11  and  _12
REMARK    6  A    between atoms: _17  and  _19
REMARK    7  A    between atoms: _19  and  _20
REMARK    8  A    between atoms: _19  and  _22
REMARK    9  A    between atoms: _22  and  _23
REMARK   10  A    between atoms: _23  and  _24
REMARK   11  A    between atoms: _27  and  _29
REMARK   12  A    between atoms: _29  and  _30
REMARK   13  A    between atoms: _29  and  _32
REMARK   14  A    between atoms: _32  and  _33
REMARK   15  A    between atoms: _33  and  _34
REMARK   16  A    between atoms: _36  and  _38
REMARK   17  A    between atoms: _38  and  _39
REMARK   18  A    between atoms: _38  and  _41
REMARK   19  A    between atoms: _41  and  _42
REMARK   20  A    between atoms: _45  and  _47
REMARK   21  A    between atoms: _47  and  _48
REMARK   22  A    between atoms: _47  and  _50
REMARK   23  A    between atoms: _50  and  _51
REMARK   24  A    between atoms: _51  and  _52
REMARK   25  A    between atoms: _52  and  _53
REMARK   26  A    between atoms: _62  and  _64
REMARK   27  A    between atoms: _64  and  _65
REMARK   28  A    between atoms: _68  and  _70
REMARK   29  A    between atoms: _70  and  _71
REMARK   30  A    between atoms: _70  and  _73
REMARK   31  A    between atoms: _73  and  _74
REMARK   32  A    between atoms: _74  and  _75
REMARK   33  A    between atoms: _80  and  _82
REMARK   34  A    between atoms: _82  and  _83
REMARK   35  A    between atoms: _82  and  _85
REMARK   36  A    between atoms: _85  and  _86
REMARK   37  A    between atoms: _91  and  _93
REMARK   38  A    between atoms: _93  and  _94
REMARK   39  A    between atoms: _93  and  _96
REMARK   40  A    between atoms: _99  and  _101
REMARK   41  A    between atoms: _101  and  _102
REMARK   42  A    between atoms: _101  and  _104
REMARK   43  A    between atoms: _104  and  _105
REMARK   44  A    between atoms: _108  and  _110
REMARK   45  A    between atoms: _110  and  _111
REMARK   46  A    between atoms: _110  and  _113
REMARK   47  A    between atoms: _113  and  _114
REMARK   48  A    between atoms: _117  and  _119
REMARK   49  A    between atoms: _119  and  _120
REMARK   50  A    between atoms: _119  and  _122
REMARK   51  A    between atoms: _122  and  _123
REMARK   52  A    between atoms: _128  and  _130
REMARK   53  A    between atoms: _130  and  _131
REMARK   54  A    between atoms: _130  and  _133
REMARK   55  A    between atoms: _133  and  _134
REMARK   56  A    between atoms: _134  and  _135
REMARK   57  A    between atoms: _135  and  _136
REMARK   58  A    between atoms: _136  and  _137
REMARK   59  A    between atoms: _141  and  _143
REMARK   60  A    between atoms: _143  and  _144
REMARK   61  A    between atoms: _146  and  _148
REMARK   62  A    between atoms: _148  and  _149
REMARK   63  A    between atoms: _148  and  _151
REMARK   64  A    between atoms: _151  and  _152
REMARK   65  A    between atoms: _157  and  _159
REMARK   66  A    between atoms: _159  and  _160
REMARK   67  A    between atoms: _159  and  _162
REMARK   68  A    between atoms: _162  and  _163
REMARK   69  A    between atoms: _163  and  _164
REMARK   70  A    between atoms: _167  and  _169
REMARK   71  A    between atoms: _169  and  _170
REMARK   72  A    between atoms: _169  and  _172
REMARK   73  A    between atoms: _172  and  _173
REMARK   74  A    between atoms: _178  and  _180
REMARK   75  A    between atoms: _180  and  _181
REMARK   76  A    between atoms: _180  and  _183
REMARK   77  A    between atoms: _183  and  _184
REMARK   78  A    between atoms: _184  and  _185
REMARK   79  A    between atoms: _187  and  _189
REMARK   80  A    between atoms: _189  and  _190
REMARK   81  A    between atoms: _189  and  _192
REMARK   82  A    between atoms: _192  and  _193
REMARK   83  A    between atoms: _193  and  _194
REMARK   84  A    between atoms: _194  and  _195
REMARK   85  A    between atoms: _204  and  _206
REMARK   86  A    between atoms: _206  and  _207
REMARK   87  A    between atoms: _206  and  _209
REMARK   88  A    between atoms: _209  and  _210
REMARK   89  A    between atoms: _213  and  _215
REMARK   90  A    between atoms: _215  and  _216
REMARK   91  A    between atoms: _219  and  _221
REMARK   92  A    between atoms: _221  and  _222
REMARK   93  A    between atoms: _221  and  _224
REMARK   94  A    between atoms: _224  and  _225
REMARK   95  A    between atoms: _231  and  _233
REMARK   96  A    between atoms: _233  and  _234
REMARK   97  A    between atoms: _233  and  _236
REMARK   98  A    between atoms: _236  and  _237
REMARK   99  A    between atoms: _237  and  _238
REMARK  100  A    between atoms: _241  and  _243
REMARK  101  A    between atoms: _243  and  _244
REMARK  102  A    between atoms: _243  and  _246
REMARK  103  A    between atoms: _246  and  _247
REMARK  104  A    between atoms: _249  and  _251
REMARK  105  A    between atoms: _251  and  _252
REMARK  106  A    between atoms: _251  and  _254
REMARK  107  A    between atoms: _254  and  _255
REMARK  108  A    between atoms: _265  and  _267
REMARK  109  A    between atoms: _267  and  _268
REMARK  110  A    between atoms: _267  and  _270
REMARK  111  A    between atoms: _270  and  _271
REMARK  112  A    between atoms: _273  and  _275
REMARK  113  A    between atoms: _275  and  _276
REMARK  114  A    between atoms: _275  and  _278
REMARK  115  A    between atoms: _281  and  _283
REMARK  116  A    between atoms: _283  and  _284
REMARK  117  A    between atoms: _283  and  _286
REMARK  118  A    between atoms: _286  and  _287
REMARK  119  A    between atoms: _290  and  _292
REMARK  120  A    between atoms: _292  and  _293
REMARK  121  A    between atoms: _292  and  _295
REMARK  122  A    between atoms: _295  and  _296
REMARK  123  A    between atoms: _299  and  _301
REMARK  124  A    between atoms: _301  and  _302
REMARK  125  A    between atoms: _301  and  _304
REMARK  126  A    between atoms: _304  and  _305
REMARK  127  A    between atoms: _305  and  _306
REMARK  128  A    between atoms: _309  and  _311
REMARK  129  A    between atoms: _311  and  _312
REMARK  130  A    between atoms: _311  and  _314
REMARK  131  A    between atoms: _314  and  _315
REMARK  132  A    between atoms: _315  and  _316
REMARK  133  A    between atoms: _318  and  _320
REMARK  134  A    between atoms: _320  and  _321
REMARK  135  A    between atoms: _320  and  _323
REMARK  136  A    between atoms: _323  and  _324
REMARK  137  A    between atoms: _327  and  _329
REMARK  138  A    between atoms: _329  and  _330
REMARK  139  A    between atoms: _329  and  _332
REMARK  140  A    between atoms: _332  and  _333
REMARK  141  A    between atoms: _333  and  _334
REMARK  142  A    between atoms: _334  and  _335
REMARK  143  A    between atoms: _344  and  _346
REMARK  144  A    between atoms: _346  and  _347
REMARK  145  A    between atoms: _350  and  _352
REMARK  146  A    between atoms: _352  and  _353
REMARK  147  A    between atoms: _352  and  _355
REMARK  148  A    between atoms: _355  and  _356
REMARK  149  A    between atoms: _356  and  _357
REMARK  150  A    between atoms: _362  and  _364
REMARK  151  A    between atoms: _364  and  _365
REMARK  152  A    between atoms: _364  and  _367
REMARK  153  A    between atoms: _367  and  _368
REMARK  154  A    between atoms: _373  and  _375
REMARK  155  A    between atoms: _375  and  _376
REMARK  156  A    between atoms: _375  and  _378
REMARK  157  A    between atoms: _381  and  _383
REMARK  158  A    between atoms: _383  and  _384
REMARK  159  A    between atoms: _383  and  _386
REMARK  160  A    between atoms: _386  and  _387
REMARK  161  A    between atoms: _390  and  _392
REMARK  162  A    between atoms: _392  and  _393
REMARK  163  A    between atoms: _392  and  _395
REMARK  164  A    between atoms: _395  and  _396
REMARK  165  A    between atoms: _399  and  _401
REMARK  166  A    between atoms: _401  and  _402
REMARK  167  A    between atoms: _401  and  _404
REMARK  168  A    between atoms: _404  and  _405
REMARK  169  A    between atoms: _410  and  _412
REMARK  170  A    between atoms: _412  and  _413
REMARK  171  A    between atoms: _412  and  _415
REMARK  172  A    between atoms: _415  and  _416
REMARK  173  A    between atoms: _421  and  _423
REMARK  174  A    between atoms: _423  and  _424
REMARK  175  A    between atoms: _423  and  _426
REMARK  176  A    between atoms: _426  and  _427
REMARK  177  A    between atoms: _427  and  _428
REMARK  178  A    between atoms: _430  and  _432
REMARK  179  A    between atoms: _432  and  _433
REMARK  180  A    between atoms: _432  and  _435
REMARK  181  A    between atoms: _435  and  _436
REMARK  182  A    between atoms: _439  and  _441
REMARK  183  A    between atoms: _441  and  _442
REMARK  184  A    between atoms: _445  and  _447
REMARK  185  A    between atoms: _447  and  _448
REMARK  186  A    between atoms: _447  and  _450
REMARK  187  A    between atoms: _450  and  _451
REMARK  188  A    between atoms: _457  and  _459
REMARK  189  A    between atoms: _459  and  _460
REMARK  190  A    between atoms: _459  and  _462
REMARK  191  A    between atoms: _462  and  _463
REMARK  192  A    between atoms: _463  and  _464
REMARK  193  A    between atoms: _467  and  _469
REMARK  194  A    between atoms: _469  and  _470
REMARK  195  A    between atoms: _469  and  _472
REMARK  196  A    between atoms: _472  and  _473
REMARK  197  A    between atoms: _475  and  _477
REMARK  198  A    between atoms: _477  and  _478
REMARK  199  A    between atoms: _477  and  _480
REMARK  200  A    between atoms: _480  and  _481
REMARK  201  A    between atoms: _491  and  _493
REMARK  202  A    between atoms: _493  and  _494
REMARK  203  A    between atoms: _493  and  _496
REMARK  204  A    between atoms: _496  and  _497
REMARK  205  A    between atoms: _499  and  _501
REMARK  206  A    between atoms: _501  and  _502
REMARK  207  A    between atoms: _501  and  _504
REMARK  208  A    between atoms: _507  and  _509
REMARK  209  A    between atoms: _509  and  _510
REMARK  210  A    between atoms: _509  and  _512
REMARK  211  A    between atoms: _512  and  _513
REMARK  212  A    between atoms: _516  and  _518
REMARK  213  A    between atoms: _518  and  _519
REMARK  214  A    between atoms: _518  and  _521
REMARK  215  A    between atoms: _521  and  _522
REMARK  216  A    between atoms: _525  and  _527
REMARK  217  A    between atoms: _527  and  _528
REMARK  218  A    between atoms: _527  and  _530
REMARK  219  A    between atoms: _530  and  _531
REMARK  220  A    between atoms: _531  and  _532
REMARK  221  A    between atoms: _535  and  _537
REMARK  222  A    between atoms: _537  and  _538
REMARK  223  A    between atoms: _537  and  _540
REMARK  224  A    between atoms: _540  and  _541
REMARK  225  A    between atoms: _541  and  _542
REMARK                            x       y       z     vdW  Elec       q    Type
REMARK                         _______ _______ _______ _____ _____    ______ ____
ROOT
ATOM      1  C   ILE A   1      17.282  27.500  57.043  0.00  0.00    +0.238 C 
ATOM      2  O   ILE A   1      16.517  27.511  58.009  0.00  0.00    -0.274 OA
ATOM      3  N   GLU A   2      17.040  26.810  55.943  0.00  0.00    -0.298 N 
ATOM      4  H   GLU A   2      17.658  26.942  55.117  0.00  0.00    +0.150 HD
ENDROOT
BRANCH   1   5
ATOM      5  CA  ILE A   1      18.584  28.303  57.072  0.00  0.00    +0.145 C 
BRANCH   5   6
ATOM      6  N   ILE A   1      19.707  27.564  56.502  0.00  0.00    -0.238 NA
ATOM      7  H   ILE A   1      20.157  27.917  55.634  0.00  0.00    +0.142 HD
ENDBRANCH   5   6
BRANCH   5   8
ATOM      8  CB  ILE A   1      18.373  29.675  56.367  0.00  0.00    +0.025 C 
ATOM      9  CG2 ILE A   1      17.025  30.308  56.799  0.00  0.00    +0.002 C 
BRANCH   8  10
ATOM     10  CG1 ILE A   1      19.536  30.621  56.691  0.00  0.00    +0.002 C 
ATOM     11  CD1 ILE A   1      19.648  31.828  55.738  0.00  0.00    +0.000 C 
ENDBRANCH   8  10
ENDBRANCH   5   8
ENDBRANCH   1   5
BRANCH   3  12
ATOM     12  CA  GLU A   2      15.918  25.858  55.853  0.00  0.00    +0.137 C 
BRANCH  12  13
ATOM     13  C   GLU A   2      16.042  24.723  56.898  0.00  0.00    +0.227 C 
ATOM     14  O   GLU A   2      15.055  24.318  57.511  0.00  0.00    -0.286 OA
ENDBRANCH  12  13
BRANCH  12  15
ATOM     15  CB  GLU A   2      15.833  25.278  54.442  0.00  0.00    +0.039 C 
BRANCH  15  16
ATOM     16  CG  GLU A   2      14.808  24.187  54.269  0.00  0.00    +0.116 C 
BRANCH  16  17
ATOM     17  CD  GLU A   2      15.126  23.294  53.099  0.00  0.00    +0.365 C 
ATOM     18  OE2 GLU A   2      14.755  22.090  53.136  0.00  0.00    -0.246 OA
ATOM     19  OE1 GLU A   2      15.747  23.789  52.138  0.00  0.00    -0.246 OA
ENDBRANCH  16  17
ENDBRANCH  15  16
ENDBRANCH  12  15
ENDBRANCH   3  12
TORSDOF 9
REMARK  Name = ../refined-set-2016/3f8f/3f8f_pocket.pdb
REMARK  225 active torsions:
REMARK  status: ('A' for Active; 'I' for Inactive)
REMARK    1  A    between atoms: _1  and  _3
REMARK    2  A    between atoms: _3  and  _4
REMARK    3  A    between atoms: _3  and  _6
REMARK    4  A    between atoms: _6  and  _7
REMARK    5  A    between atoms: _11  and  _12
REMARK    6  A    between atoms: _17  and  _19
REMARK    7  A    between atoms: _19  and  _20
REMARK    8  A    between atoms: _19  and  _22
REMARK    9  A    between atoms: _22  and  _23
REMARK   10  A    between atoms: _23  and  _24
REMARK   11  A    between atoms: _27  and  _29
REMARK   12  A    between atoms: _29  and  _30
REMARK   13  A    between atoms: _29  and  _32
REMARK   14  A    between atoms: _32  and  _33
REMARK   15  A    between atoms: _33  and  _34
REMARK   16  A    between atoms: _36  and  _38
REMARK   17  A    between atoms: _38  and  _39
REMARK   18  A    between atoms: _38  and  _41
REMARK   19  A    between atoms: _41  and  _42
REMARK   20  A    between atoms: _45  and  _47
REMARK   21  A    between atoms: _47  and  _48
REMARK   22  A    between atoms: _47  and  _50
REMARK   23  A    between atoms: _50  and  _51
REMARK   24  A    between atoms: _51  and  _52
REMARK   25  A    between atoms: _52  and  _53
REMARK   26  A    between atoms: _62  and  _64
REMARK   27  A    between atoms: _64  and  _65
REMARK   28  A    between atoms: _68  and  _70
REMARK   29  A    between atoms: _70  and  _71
REMARK   30  A    between atoms: _70  and  _73
REMARK   31  A    between atoms: _73  and  _74
REMARK   32  A    between atoms: _74  and  _75
REMARK   33  A    between atoms: _80  and  _82
REMARK   34  A    between atoms: _82  and  _83
REMARK   35  A    between atoms: _82  and  _85
REMARK   36  A    between atoms: _85  and  _86
REMARK   37  A    between atoms: _91  and  _93
REMARK   38  A    between atoms: _93  and  _94
REMARK   39  A    between atoms: _93  and  _96
REMARK   40  A    between atoms: _99  and  _101
REMARK   41  A    between atoms: _101  and  _102
REMARK   42  A    between atoms: _101  and  _104
REMARK   43  A    between atoms: _104  and  _105
REMARK   44  A    between atoms: _108  and  _110
REMARK   45  A    between atoms: _110  and  _111
REMARK   46  A    between atoms: _110  and  _113
REMARK   47  A    between atoms: _113  and  _114
REMARK   48  A    between atoms: _117  and  _119
REMARK   49  A    between atoms: _119  and  _120
REMARK   50  A    between atoms: _119  and  _122
REMARK   51  A    between atoms: _122  and  _123
REMARK   52  A    between atoms: _128  and  _130
REMARK   53  A    between atoms: _130  and  _131
REMARK   54  A    between atoms: _130  and  _133
REMARK   55  A    between atoms: _133  and  _134
REMARK   56  A    between atoms: _134  and  _135
REMARK   57  A    between atoms: _135  and  _136
REMARK   58  A    between atoms: _136  and  _137
REMARK   59  A    between atoms: _141  and  _143
REMARK   60  A    between atoms: _143  and  _144
REMARK   61  A    between atoms: _146  and  _148
REMARK   62  A    between atoms: _148  and  _149
REMARK   63  A    between atoms: _148  and  _151
REMARK   64  A    between atoms: _151  and  _152
REMARK   65  A    between atoms: _157  and  _159
REMARK   66  A    between atoms: _159  and  _160
REMARK   67  A    between atoms: _159  and  _162
REMARK   68  A    between atoms: _162  and  _163
REMARK   69  A    between atoms: _163  and  _164
REMARK   70  A    between atoms: _167  and  _169
REMARK   71  A    between atoms: _169  and  _170
REMARK   72  A    between atoms: _169  and  _172
REMARK   73  A    between atoms: _172  and  _173
REMARK   74  A    between atoms: _178  and  _180
REMARK   75  A    between atoms: _180  and  _181
REMARK   76  A    between atoms: _180  and  _183
REMARK   77  A    between atoms: _183  and  _184
REMARK   78  A    between atoms: _184  and  _185
REMARK   79  A    between atoms: _187  and  _189
REMARK   80  A    between atoms: _189  and  _190
REMARK   81  A    between atoms: _189  and  _192
REMARK   82  A    between atoms: _192  and  _193
REMARK   83  A    between atoms: _193  and  _194
REMARK   84  A    between atoms: _194  and  _195
REMARK   85  A    between atoms: _204  and  _206
REMARK   86  A    between atoms: _206  and  _207
REMARK   87  A    between atoms: _206  and  _209
REMARK   88  A    between atoms: _209  and  _210
REMARK   89  A    between atoms: _213  and  _215
REMARK   90  A    between atoms: _215  and  _216
REMARK   91  A    between atoms: _219  and  _221
REMARK   92  A    between atoms: _221  and  _222
REMARK   93  A    between atoms: _221  and  _224
REMARK   94  A    between atoms: _224  and  _225
REMARK   95  A    between atoms: _231  and  _233
REMARK   96  A    between atoms: _233  and  _234
REMARK   97  A    between atoms: _233  and  _236
REMARK   98  A    between atoms: _236  and  _237
REMARK   99  A    between atoms: _237  and  _238
REMARK  100  A    between atoms: _241  and  _243
REMARK  101  A    between atoms: _243  and  _244
REMARK  102  A    between atoms: _243  and  _246
REMARK  103  A    between atoms: _246  and  _247
REMARK  104  A    between atoms: _249  and  _251
REMARK  105  A    between atoms: _251  and  _252
REMARK  106  A    between atoms: _251  and  _254
REMARK  107  A    between atoms: _254  and  _255
REMARK  108  A    between atoms: _265  and  _267
REMARK  109  A    between atoms: _267  and  _268
REMARK  110  A    between atoms: _267  and  _270
REMARK  111  A    between atoms: _270  and  _271
REMARK  112  A    between atoms: _273  and  _275
REMARK  113  A    between atoms: _275  and  _276
REMARK  114  A    between atoms: _275  and  _278
REMARK  115  A    between atoms: _281  and  _283
REMARK  116  A    between atoms: _283  and  _284
REMARK  117  A    between atoms: _283  and  _286
REMARK  118  A    between atoms: _286  and  _287
REMARK  119  A    between atoms: _290  and  _292
REMARK  120  A    between atoms: _292  and  _293
REMARK  121  A    between atoms: _292  and  _295
REMARK  122  A    between atoms: _295  and  _296
REMARK  123  A    between atoms: _299  and  _301
REMARK  124  A    between atoms: _301  and  _302
REMARK  125  A    between atoms: _301  and  _304
REMARK  126  A    between atoms: _304  and  _305
REMARK  127  A    between atoms: _305  and  _306
REMARK  128  A    between atoms: _309  and  _311
REMARK  129  A    between atoms: _311  and  _312
REMARK  130  A    between atoms: _311  and  _314
REMARK  131  A    between atoms: _314  and  _315
REMARK  132  A    between atoms: _315  and  _316
REMARK  133  A    between atoms: _318  and  _320
REMARK  134  A    between atoms: _320  and  _321
REMARK  135  A    between atoms: _320  and  _323
REMARK  136  A    between atoms: _323  and  _324
REMARK  137  A    between atoms: _327  and  _329
REMARK  138  A    between atoms: _329  and  _330
REMARK  139  A    between atoms: _329  and  _332
REMARK  140  A    between atoms: _332  and  _333
REMARK  141  A    between atoms: _333  and  _334
REMARK  142  A    between atoms: _334  and  _335
REMARK  143  A    between atoms: _344  and  _346
REMARK  144  A    between atoms: _346  and  _347
REMARK  145  A    between atoms: _350  and  _352
REMARK  146  A    between atoms: _352  and  _353
REMARK  147  A    between atoms: _352  and  _355
REMARK  148  A    between atoms: _355  and  _356
REMARK  149  A    between atoms: _356  and  _357
REMARK  150  A    between atoms: _362  and  _364
REMARK  151  A    between atoms: _364  and  _365
REMARK  152  A    between atoms: _364  and  _367
REMARK  153  A    between atoms: _367  and  _368
REMARK  154  A    between atoms: _373  and  _375
REMARK  155  A    between atoms: _375  and  _376
REMARK  156  A    between atoms: _375  and  _378
REMARK  157  A    between atoms: _381  and  _383
REMARK  158  A    between atoms: _383  and  _384
REMARK  159  A    between atoms: _383  and  _386
REMARK  160  A    between atoms: _386  and  _387
REMARK  161  A    between atoms: _390  and  _392
REMARK  162  A    between atoms: _392  and  _393
REMARK  163  A    between atoms: _392  and  _395
REMARK  164  A    between atoms: _395  and  _396
REMARK  165  A    between atoms: _399  and  _401
REMARK  166  A    between atoms: _401  and  _402
REMARK  167  A    between atoms: _401  and  _404
REMARK  168  A    between atoms: _404  and  _405
REMARK  169  A    between atoms: _410  and  _412
REMARK  170  A    between atoms: _412  and  _413
REMARK  171  A    between atoms: _412  and  _415
REMARK  172  A    between atoms: _415  and  _416
REMARK  173  A    between atoms: _421  and  _423
REMARK  174  A    between atoms: _423  and  _424
REMARK  175  A    between atoms: _423  and  _426
REMARK  176  A    between atoms: _426  and  _427
REMARK  177  A    between atoms: _427  and  _428
REMARK  178  A    between atoms: _430  and  _432
REMARK  179  A    between atoms: _432  and  _433
REMARK  180  A    between atoms: _432  and  _435
REMARK  181  A    between atoms: _435  and  _436
REMARK  182  A    between atoms: _439  and  _441
REMARK  183  A    between atoms: _441  and  _442
REMARK  184  A    between atoms: _445  and  _447
REMARK  185  A    between atoms: _447  and  _448
REMARK  186  A    between atoms: _447  and  _450
REMARK  187  A    between atoms: _450  and  _451
REMARK  188  A    between atoms: _457  and  _459
REMARK  189  A    between atoms: _459  and  _460
REMARK  190  A    between atoms: _459  and  _462
REMARK  191  A    between atoms: _462  and  _463
REMARK  192  A    between atoms: _463  and  _464
REMARK  193  A    between atoms: _467  and  _469
REMARK  194  A    between atoms: _469  and  _470
REMARK  195  A    between atoms: _469  and  _472
REMARK  196  A    between atoms: _472  and  _473
REMARK  197  A    between atoms: _475  and  _477
REMARK  198  A    between atoms: _477  and  _478
REMARK  199  A    between atoms: _477  and  _480
REMARK  200  A    between atoms: _480  and  _481
REMARK  201  A    between atoms: _491  and  _493
REMARK  202  A    between atoms: _493  and  _494
REMARK  203  A    between atoms: _493  and  _496
REMARK  204  A    between atoms: _496  and  _497
REMARK  205  A    between atoms: _499  and  _501
REMARK  206  A    between atoms: _501  and  _502
REMARK  207  A    between atoms: _501  and  _504
REMARK  208  A    between atoms: _507  and  _509
REMARK  209  A    between atoms: _509  and  _510
REMARK  210  A    between atoms: _509  and  _512
REMARK  211  A    between atoms: _512  and  _513
REMARK  212  A    between atoms: _516  and  _518
REMARK  213  A    between atoms: _518  and  _519
REMARK  214  A    between atoms: _518  and  _521
REMARK  215  A    between atoms: _521  and  _522
REMARK  216  A    between atoms: _525  and  _527
REMARK  217  A    between atoms: _527  and  _528
REMARK  218  A    between atoms: _527  and  _530
REMARK  219  A    between atoms: _530  and  _531
REMARK  220  A    between atoms: _531  and  _532
REMARK  221  A    between atoms: _535  and  _537
REMARK  222  A    between atoms: _537  and  _538
REMARK  223  A    between atoms: _537  and  _540
REMARK  224  A    between atoms: _540  and  _541
REMARK  225  A    between atoms: _541  and  _542
REMARK                            x       y       z     vdW  Elec       q    Type
REMARK                         _______ _______ _______ _____ _____    ______ ____
ROOT
ATOM      1  CA  GLU A   1      13.695  26.142  60.577  0.00  0.00    +0.134 C 
ENDROOT
BRANCH   1   2
ATOM      2  N   GLU A   1      15.142  26.049  60.386  0.00  0.00    -0.239 NA
ATOM      3  H   GLU A   1      15.539  26.224  59.441  0.00  0.00    +0.142 HD
ENDBRANCH   1   2
BRANCH   1   4
ATOM      4  C   GLU A   1      13.074  24.765  60.830  0.00  0.00    +0.224 C 
ATOM      5  O   GLU A   1      12.133  24.627  61.646  0.00  0.00    -0.287 OA
ENDBRANCH   1   4
BRANCH   1   6
ATOM      6  CB  GLU A   1      13.036  26.810  59.362  0.00  0.00    +0.037 C 
BRANCH   6   7
ATOM      7  CG  GLU A   1      13.312  28.313  59.249  0.00  0.00    +0.116 C 
BRANCH   7   8
ATOM      8  CD  GLU A   1      13.139  28.845  57.829  0.00  0.00    +0.365 C 
ATOM      9  OE2 GLU A   1      13.232  30.082  57.641  0.00  0.00    -0.246 OA
ATOM     10  OE1 GLU A   1      12.913  28.028  56.896  0.00  0.00    -0.246 OA
ENDBRANCH   7   8
ENDBRANCH   6   7
ENDBRANCH   1   6
TORSDOF 5
REMARK  Name = ../refined-set-2016/3f8f/3f8f_pocket.pdb
REMARK  225 active torsions:
REMARK  status: ('A' for Active; 'I' for Inactive)
REMARK    1  A    between atoms: _1  and  _3
REMARK    2  A    between atoms: _3  and  _4
REMARK    3  A    between atoms: _3  and  _6
REMARK    4  A    between atoms: _6  and  _7
REMARK    5  A    between atoms: _11  and  _12
REMARK    6  A    between atoms: _17  and  _19
REMARK    7  A    between atoms: _19  and  _20
REMARK    8  A    between atoms: _19  and  _22
REMARK    9  A    between atoms: _22  and  _23
REMARK   10  A    between atoms: _23  and  _24
REMARK   11  A    between atoms: _27  and  _29
REMARK   12  A    between atoms: _29  and  _30
REMARK   13  A    between atoms: _29  and  _32
REMARK   14  A    between atoms: _32  and  _33
REMARK   15  A    between atoms: _33  and  _34
REMARK   16  A    between atoms: _36  and  _38
REMARK   17  A    between atoms: _38  and  _39
REMARK   18  A    between atoms: _38  and  _41
REMARK   19  A    between atoms: _41  and  _42
REMARK   20  A    between atoms: _45  and  _47
REMARK   21  A    between atoms: _47  and  _48
REMARK   22  A    between atoms: _47  and  _50
REMARK   23  A    between atoms: _50  and  _51
REMARK   24  A    between atoms: _51  and  _52
REMARK   25  A    between atoms: _52  and  _53
REMARK   26  A    between atoms: _62  and  _64
REMARK   27  A    between atoms: _64  and  _65
REMARK   28  A    between atoms: _68  and  _70
REMARK   29  A    between atoms: _70  and  _71
REMARK   30  A    between atoms: _70  and  _73
REMARK   31  A    between atoms: _73  and  _74
REMARK   32  A    between atoms: _74  and  _75
REMARK   33  A    between atoms: _80  and  _82
REMARK   34  A    between atoms: _82  and  _83
REMARK   35  A    between atoms: _82  and  _85
REMARK   36  A    between atoms: _85  and  _86
REMARK   37  A    between atoms: _91  and  _93
REMARK   38  A    between atoms: _93  and  _94
REMARK   39  A    between atoms: _93  and  _96
REMARK   40  A    between atoms: _99  and  _101
REMARK   41  A    between atoms: _101  and  _102
REMARK   42  A    between atoms: _101  and  _104
REMARK   43  A    between atoms: _104  and  _105
REMARK   44  A    between atoms: _108  and  _110
REMARK   45  A    between atoms: _110  and  _111
REMARK   46  A    between atoms: _110  and  _113
REMARK   47  A    between atoms: _113  and  _114
REMARK   48  A    between atoms: _117  and  _119
REMARK   49  A    between atoms: _119  and  _120
REMARK   50  A    between atoms: _119  and  _122
REMARK   51  A    between atoms: _122  and  _123
REMARK   52  A    between atoms: _128  and  _130
REMARK   53  A    between atoms: _130  and  _131
REMARK   54  A    between atoms: _130  and  _133
REMARK   55  A    between atoms: _133  and  _134
REMARK   56  A    between atoms: _134  and  _135
REMARK   57  A    between atoms: _135  and  _136
REMARK   58  A    between atoms: _136  and  _137
REMARK   59  A    between atoms: _141  and  _143
REMARK   60  A    between atoms: _143  and  _144
REMARK   61  A    between atoms: _146  and  _148
REMARK   62  A    between atoms: _148  and  _149
REMARK   63  A    between atoms: _148  and  _151
REMARK   64  A    between atoms: _151  and  _152
REMARK   65  A    between atoms: _157  and  _159
REMARK   66  A    between atoms: _159  and  _160
REMARK   67  A    between atoms: _159  and  _162
REMARK   68  A    between atoms: _162  and  _163
REMARK   69  A    between atoms: _163  and  _164
REMARK   70  A    between atoms: _167  and  _169
REMARK   71  A    between atoms: _169  and  _170
REMARK   72  A    between atoms: _169  and  _172
REMARK   73  A    between atoms: _172  and  _173
REMARK   74  A    between atoms: _178  and  _180
REMARK   75  A    between atoms: _180  and  _181
REMARK   76  A    between atoms: _180  and  _183
REMARK   77  A    between atoms: _183  and  _184
REMARK   78  A    between atoms: _184  and  _185
REMARK   79  A    between atoms: _187  and  _189
REMARK   80  A    between atoms: _189  and  _190
REMARK   81  A    between atoms: _189  and  _192
REMARK   82  A    between atoms: _192  and  _193
REMARK   83  A    between atoms: _193  and  _194
REMARK   84  A    between atoms: _194  and  _195
REMARK   85  A    between atoms: _204  and  _206
REMARK   86  A    between atoms: _206  and  _207
REMARK   87  A    between atoms: _206  and  _209
REMARK   88  A    between atoms: _209  and  _210
REMARK   89  A    between atoms: _213  and  _215
REMARK   90  A    between atoms: _215  and  _216
REMARK   91  A    between atoms: _219  and  _221
REMARK   92  A    between atoms: _221  and  _222
REMARK   93  A    between atoms: _221  and  _224
REMARK   94  A    between atoms: _224  and  _225
REMARK   95  A    between atoms: _231  and  _233
REMARK   96  A    between atoms: _233  and  _234
REMARK   97  A    between atoms: _233  and  _236
REMARK   98  A    between atoms: _236  and  _237
REMARK   99  A    between atoms: _237  and  _238
REMARK  100  A    between atoms: _241  and  _243
REMARK  101  A    between atoms: _243  and  _244
REMARK  102  A    between atoms: _243  and  _246
REMARK  103  A    between atoms: _246  and  _247
REMARK  104  A    between atoms: _249  and  _251
REMARK  105  A    between atoms: _251  and  _252
REMARK  106  A    between atoms: _251  and  _254
REMARK  107  A    between atoms: _254  and  _255
REMARK  108  A    between atoms: _265  and  _267
REMARK  109  A    between atoms: _267  and  _268
REMARK  110  A    between atoms: _267  and  _270
REMARK  111  A    between atoms: _270  and  _271
REMARK  112  A    between atoms: _273  and  _275
REMARK  113  A    between atoms: _275  and  _276
REMARK  114  A    between atoms: _275  and  _278
REMARK  115  A    between atoms: _281  and  _283
REMARK  116  A    between atoms: _283  and  _284
REMARK  117  A    between atoms: _283  and  _286
REMARK  118  A    between atoms: _286  and  _287
REMARK  119  A    between atoms: _290  and  _292
REMARK  120  A    between atoms: _292  and  _293
REMARK  121  A    between atoms: _292  and  _295
REMARK  122  A    between atoms: _295  and  _296
REMARK  123  A    between atoms: _299  and  _301
REMARK  124  A    between atoms: _301  and  _302
REMARK  125  A    between atoms: _301  and  _304
REMARK  126  A    between atoms: _304  and  _305
REMARK  127  A    between atoms: _305  and  _306
REMARK  128  A    between atoms: _309  and  _311
REMARK  129  A    between atoms: _311  and  _312
REMARK  130  A    between atoms: _311  and  _314
REMARK  131  A    between atoms: _314  and  _315
REMARK  132  A    between atoms: _315  and  _316
REMARK  133  A    between atoms: _318  and  _320
REMARK  134  A    between atoms: _320  and  _321
REMARK  135  A    between atoms: _320  and  _323
REMARK  136  A    between atoms: _323  and  _324
REMARK  137  A    between atoms: _327  and  _329
REMARK  138  A    between atoms: _329  and  _330
REMARK  139  A    between atoms: _329  and  _332
REMARK  140  A    between atoms: _332  and  _333
REMARK  141  A    between atoms: _333  and  _334
REMARK  142  A    between atoms: _334  and  _335
REMARK  143  A    between atoms: _344  and  _346
REMARK  144  A    between atoms: _346  and  _347
REMARK  145  A    between atoms: _350  and  _352
REMARK  146  A    between atoms: _352  and  _353
REMARK  147  A    between atoms: _352  and  _355
REMARK  148  A    between atoms: _355  and  _356
REMARK  149  A    between atoms: _356  and  _357
REMARK  150  A    between atoms: _362  and  _364
REMARK  151  A    between atoms: _364  and  _365
REMARK  152  A    between atoms: _364  and  _367
REMARK  153  A    between atoms: _367  and  _368
REMARK  154  A    between atoms: _373  and  _375
REMARK  155  A    between atoms: _375  and  _376
REMARK  156  A    between atoms: _375  and  _378
REMARK  157  A    between atoms: _381  and  _383
REMARK  158  A    between atoms: _383  and  _384
REMARK  159  A    between atoms: _383  and  _386
REMARK  160  A    between atoms: _386  and  _387
REMARK  161  A    between atoms: _390  and  _392
REMARK  162  A    between atoms: _392  and  _393
REMARK  163  A    between atoms: _392  and  _395
REMARK  164  A    between atoms: _395  and  _396
REMARK  165  A    between atoms: _399  and  _401
REMARK  166  A    between atoms: _401  and  _402
REMARK  167  A    between atoms: _401  and  _404
REMARK  168  A    between atoms: _404  and  _405
REMARK  169  A    between atoms: _410  and  _412
REMARK  170  A    between atoms: _412  and  _413
REMARK  171  A    between atoms: _412  and  _415
REMARK  172  A    between atoms: _415  and  _416
REMARK  173  A    between atoms: _421  and  _423
REMARK  174  A    between atoms: _423  and  _424
REMARK  175  A    between atoms: _423  and  _426
REMARK  176  A    between atoms: _426  and  _427
REMARK  177  A    between atoms: _427  and  _428
REMARK  178  A    between atoms: _430  and  _432
REMARK  179  A    between atoms: _432  and  _433
REMARK  180  A    between atoms: _432  and  _435
REMARK  181  A    between atoms: _435  and  _436
REMARK  182  A    between atoms: _439  and  _441
REMARK  183  A    between atoms: _441  and  _442
REMARK  184  A    between atoms: _445  and  _447
REMARK  185  A    between atoms: _447  and  _448
REMARK  186  A    between atoms: _447  and  _450
REMARK  187  A    between atoms: _450  and  _451
REMARK  188  A    between atoms: _457  and  _459
REMARK  189  A    between atoms: _459  and  _460
REMARK  190  A    between atoms: _459  and  _462
REMARK  191  A    between atoms: _462  and  _463
REMARK  192  A    between atoms: _463  and  _464
REMARK  193  A    between atoms: _467  and  _469
REMARK  194  A    between atoms: _469  and  _470
REMARK  195  A    between atoms: _469  and  _472
REMARK  196  A    between atoms: _472  and  _473
REMARK  197  A    between atoms: _475  and  _477
REMARK  198  A    between atoms: _477  and  _478
REMARK  199  A    between atoms: _477  and  _480
REMARK  200  A    between atoms: _480  and  _481
REMARK  201  A    between atoms: _491  and  _493
REMARK  202  A    between atoms: _493  and  _494
REMARK  203  A    between atoms: _493  and  _496
REMARK  204  A    between atoms: _496  and  _497
REMARK  205  A    between atoms: _499  and  _501
REMARK  206  A    between atoms: _501  and  _502
REMARK  207  A    between atoms: _501  and  _504
REMARK  208  A    between atoms: _507  and  _509
REMARK  209  A    between atoms: _509  and  _510
REMARK  210  A    between atoms: _509  and  _512
REMARK  211  A    between atoms: _512  and  _513
REMARK  212  A    between atoms: _516  and  _518
REMARK  213  A    between atoms: _518  and  _519
REMARK  214  A    between atoms: _518  and  _521
REMARK  215  A    between atoms: _521  and  _522
REMARK  216  A    between atoms: _525  and  _527
REMARK  217  A    between atoms: _527  and  _528
REMARK  218  A    between atoms: _527  and  _530
REMARK  219  A    between atoms: _530  and  _531
REMARK  220  A    between atoms: _531  and  _532
REMARK  221  A    between atoms: _535  and  _537
REMARK  222  A    between atoms: _537  and  _538
REMARK  223  A    between atoms: _537  and  _540
REMARK  224  A    between atoms: _540  and  _541
REMARK  225  A    between atoms: _541  and  _542
REMARK                            x       y       z     vdW  Elec       q    Type
REMARK                         _______ _______ _______ _____ _____    ______ ____
ROOT
ATOM      1  O   HOH     1      29.977  42.407  53.499  0.00  0.00    +0.000 OA
ENDROOT
TORSDOF 0
REMARK  Name = ../refined-set-2016/3f8f/3f8f_pocket.pdb
REMARK  225 active torsions:
REMARK  status: ('A' for Active; 'I' for Inactive)
REMARK    1  A    between atoms: _1  and  _3
REMARK    2  A    between atoms: _3  and  _4
REMARK    3  A    between atoms: _3  and  _6
REMARK    4  A    between atoms: _6  and  _7
REMARK    5  A    between atoms: _11  and  _12
REMARK    6  A    between atoms: _17  and  _19
REMARK    7  A    between atoms: _19  and  _20
REMARK    8  A    between atoms: _19  and  _22
REMARK    9  A    between atoms: _22  and  _23
REMARK   10  A    between atoms: _23  and  _24
REMARK   11  A    between atoms: _27  and  _29
REMARK   12  A    between atoms: _29  and  _30
REMARK   13  A    between atoms: _29  and  _32
REMARK   14  A    between atoms: _32  and  _33
REMARK   15  A    between atoms: _33  and  _34
REMARK   16  A    between atoms: _36  and  _38
REMARK   17  A    between atoms: _38  and  _39
REMARK   18  A    between atoms: _38  and  _41
REMARK   19  A    between atoms: _41  and  _42
REMARK   20  A    between atoms: _45  and  _47
REMARK   21  A    between atoms: _47  and  _48
REMARK   22  A    between atoms: _47  and  _50
REMARK   23  A    between atoms: _50  and  _51
REMARK   24  A    between atoms: _51  and  _52
REMARK   25  A    between atoms: _52  and  _53
REMARK   26  A    between atoms: _62  and  _64
REMARK   27  A    between atoms: _64  and  _65
REMARK   28  A    between atoms: _68  and  _70
REMARK   29  A    between atoms: _70  and  _71
REMARK   30  A    between atoms: _70  and  _73
REMARK   31  A    between atoms: _73  and  _74
REMARK   32  A    between atoms: _74  and  _75
REMARK   33  A    between atoms: _80  and  _82
REMARK   34  A    between atoms: _82  and  _83
REMARK   35  A    between atoms: _82  and  _85
REMARK   36  A    between atoms: _85  and  _86
REMARK   37  A    between atoms: _91  and  _93
REMARK   38  A    between atoms: _93  and  _94
REMARK   39  A    between atoms: _93  and  _96
REMARK   40  A    between atoms: _99  and  _101
REMARK   41  A    between atoms: _101  and  _102
REMARK   42  A    between atoms: _101  and  _104
REMARK   43  A    between atoms: _104  and  _105
REMARK   44  A    between atoms: _108  and  _110
REMARK   45  A    between atoms: _110  and  _111
REMARK   46  A    between atoms: _110  and  _113
REMARK   47  A    between atoms: _113  and  _114
REMARK   48  A    between atoms: _117  and  _119
REMARK   49  A    between atoms: _119  and  _120
REMARK   50  A    between atoms: _119  and  _122
REMARK   51  A    between atoms: _122  and  _123
REMARK   52  A    between atoms: _128  and  _130
REMARK   53  A    between atoms: _130  and  _131
REMARK   54  A    between atoms: _130  and  _133
REMARK   55  A    between atoms: _133  and  _134
REMARK   56  A    between atoms: _134  and  _135
REMARK   57  A    between atoms: _135  and  _136
REMARK   58  A    between atoms: _136  and  _137
REMARK   59  A    between atoms: _141  and  _143
REMARK   60  A    between atoms: _143  and  _144
REMARK   61  A    between atoms: _146  and  _148
REMARK   62  A    between atoms: _148  and  _149
REMARK   63  A    between atoms: _148  and  _151
REMARK   64  A    between atoms: _151  and  _152
REMARK   65  A    between atoms: _157  and  _159
REMARK   66  A    between atoms: _159  and  _160
REMARK   67  A    between atoms: _159  and  _162
REMARK   68  A    between atoms: _162  and  _163
REMARK   69  A    between atoms: _163  and  _164
REMARK   70  A    between atoms: _167  and  _169
REMARK   71  A    between atoms: _169  and  _170
REMARK   72  A    between atoms: _169  and  _172
REMARK   73  A    between atoms: _172  and  _173
REMARK   74  A    between atoms: _178  and  _180
REMARK   75  A    between atoms: _180  and  _181
REMARK   76  A    between atoms: _180  and  _183
REMARK   77  A    between atoms: _183  and  _184
REMARK   78  A    between atoms: _184  and  _185
REMARK   79  A    between atoms: _187  and  _189
REMARK   80  A    between atoms: _189  and  _190
REMARK   81  A    between atoms: _189  and  _192
REMARK   82  A    between atoms: _192  and  _193
REMARK   83  A    between atoms: _193  and  _194
REMARK   84  A    between atoms: _194  and  _195
REMARK   85  A    between atoms: _204  and  _206
REMARK   86  A    between atoms: _206  and  _207
REMARK   87  A    between atoms: _206  and  _209
REMARK   88  A    between atoms: _209  and  _210
REMARK   89  A    between atoms: _213  and  _215
REMARK   90  A    between atoms: _215  and  _216
REMARK   91  A    between atoms: _219  and  _221
REMARK   92  A    between atoms: _221  and  _222
REMARK   93  A    between atoms: _221  and  _224
REMARK   94  A    between atoms: _224  and  _225
REMARK   95  A    between atoms: _231  and  _233
REMARK   96  A    between atoms: _233  and  _234
REMARK   97  A    between atoms: _233  and  _236
REMARK   98  A    between atoms: _236  and  _237
REMARK   99  A    between atoms: _237  and  _238
REMARK  100  A    between atoms: _241  and  _243
REMARK  101  A    between atoms: _243  and  _244
REMARK  102  A    between atoms: _243  and  _246
REMARK  103  A    between atoms: _246  and  _247
REMARK  104  A    between atoms: _249  and  _251
REMARK  105  A    between atoms: _251  and  _252
REMARK  106  A    between atoms: _251  and  _254
REMARK  107  A    between atoms: _254  and  _255
REMARK  108  A    between atoms: _265  and  _267
REMARK  109  A    between atoms: _267  and  _268
REMARK  110  A    between atoms: _267  and  _270
REMARK  111  A    between atoms: _270  and  _271
REMARK  112  A    between atoms: _273  and  _275
REMARK  113  A    between atoms: _275  and  _276
REMARK  114  A    between atoms: _275  and  _278
REMARK  115  A    between atoms: _281  and  _283
REMARK  116  A    between atoms: _283  and  _284
REMARK  117  A    between atoms: _283  and  _286
REMARK  118  A    between atoms: _286  and  _287
REMARK  119  A    between atoms: _290  and  _292
REMARK  120  A    between atoms: _292  and  _293
REMARK  121  A    between atoms: _292  and  _295
REMARK  122  A    between atoms: _295  and  _296
REMARK  123  A    between atoms: _299  and  _301
REMARK  124  A    between atoms: _301  and  _302
REMARK  125  A    between atoms: _301  and  _304
REMARK  126  A    between atoms: _304  and  _305
REMARK  127  A    between atoms: _305  and  _306
REMARK  128  A    between atoms: _309  and  _311
REMARK  129  A    between atoms: _311  and  _312
REMARK  130  A    between atoms: _311  and  _314
REMARK  131  A    between atoms: _314  and  _315
REMARK  132  A    between atoms: _315  and  _316
REMARK  133  A    between atoms: _318  and  _320
REMARK  134  A    between atoms: _320  and  _321
REMARK  135  A    between atoms: _320  and  _323
REMARK  136  A    between atoms: _323  and  _324
REMARK  137  A    between atoms: _327  and  _329
REMARK  138  A    between atoms: _329  and  _330
REMARK  139  A    between atoms: _329  and  _332
REMARK  140  A    between atoms: _332  and  _333
REMARK  141  A    between atoms: _333  and  _334
REMARK  142  A    between atoms: _334  and  _335
REMARK  143  A    between atoms: _344  and  _346
REMARK  144  A    between atoms: _346  and  _347
REMARK  145  A    between atoms: _350  and  _352
REMARK  146  A    between atoms: _352  and  _353
REMARK  147  A    between atoms: _352  and  _355
REMARK  148  A    between atoms: _355  and  _356
REMARK  149  A    between atoms: _356  and  _357
REMARK  150  A    between atoms: _362  and  _364
REMARK  151  A    between atoms: _364  and  _365
REMARK  152  A    between atoms: _364  and  _367
REMARK  153  A    between atoms: _367  and  _368
REMARK  154  A    between atoms: _373  and  _375
REMARK  155  A    between atoms: _375  and  _376
REMARK  156  A    between atoms: _375  and  _378
REMARK  157  A    between atoms: _381  and  _383
REMARK  158  A    between atoms: _383  and  _384
REMARK  159  A    between atoms: _383  and  _386
REMARK  160  A    between atoms: _386  and  _387
REMARK  161  A    between atoms: _390  and  _392
REMARK  162  A    between atoms: _392  and  _393
REMARK  163  A    between atoms: _392  and  _395
REMARK  164  A    between atoms: _395  and  _396
REMARK  165  A    between atoms: _399  and  _401
REMARK  166  A    between atoms: _401  and  _402
REMARK  167  A    between atoms: _401  and  _404
REMARK  168  A    between atoms: _404  and  _405
REMARK  169  A    between atoms: _410  and  _412
REMARK  170  A    between atoms: _412  and  _413
REMARK  171  A    between atoms: _412  and  _415
REMARK  172  A    between atoms: _415  and  _416
REMARK  173  A    between atoms: _421  and  _423
REMARK  174  A    between atoms: _423  and  _424
REMARK  175  A    between atoms: _423  and  _426
REMARK  176  A    between atoms: _426  and  _427
REMARK  177  A    between atoms: _427  and  _428
REMARK  178  A    between atoms: _430  and  _432
REMARK  179  A    between atoms: _432  and  _433
REMARK  180  A    between atoms: _432  and  _435
REMARK  181  A    between atoms: _435  and  _436
REMARK  182  A    between atoms: _439  and  _441
REMARK  183  A    between atoms: _441  and  _442
REMARK  184  A    between atoms: _445  and  _447
REMARK  185  A    between atoms: _447  and  _448
REMARK  186  A    between atoms: _447  and  _450
REMARK  187  A    between atoms: _450  and  _451
REMARK  188  A    between atoms: _457  and  _459
REMARK  189  A    between atoms: _459  and  _460
REMARK  190  A    between atoms: _459  and  _462
REMARK  191  A    between atoms: _462  and  _463
REMARK  192  A    between atoms: _463  and  _464
REMARK  193  A    between atoms: _467  and  _469
REMARK  194  A    between atoms: _469  and  _470
REMARK  195  A    between atoms: _469  and  _472
REMARK  196  A    between atoms: _472  and  _473
REMARK  197  A    between atoms: _475  and  _477
REMARK  198  A    between atoms: _477  and  _478
REMARK  199  A    between atoms: _477  and  _480
REMARK  200  A    between atoms: _480  and  _481
REMARK  201  A    between atoms: _491  and  _493
REMARK  202  A    between atoms: _493  and  _494
REMARK  203  A    between atoms: _493  and  _496
REMARK  204  A    between atoms: _496  and  _497
REMARK  205  A    between atoms: _499  and  _501
REMARK  206  A    between atoms: _501  and  _502
REMARK  207  A    between atoms: _501  and  _504
REMARK  208  A    between atoms: _507  and  _509
REMARK  209  A    between atoms: _509  and  _510
REMARK  210  A    between atoms: _509  and  _512
REMARK  211  A    between atoms: _512  and  _513
REMARK  212  A    between atoms: _516  and  _518
REMARK  213  A    between atoms: _518  and  _519
REMARK  214  A    between atoms: _518  and  _521
REMARK  215  A    between atoms: _521  and  _522
REMARK  216  A    between atoms: _525  and  _527
REMARK  217  A    between atoms: _527  and  _528
REMARK  218  A    between atoms: _527  and  _530
REMARK  219  A    between atoms: _530  and  _531
REMARK  220  A    between atoms: _531  and  _532
REMARK  221  A    between atoms: _535  and  _537
REMARK  222  A    between atoms: _537  and  _538
REMARK  223  A    between atoms: _537  and  _540
REMARK  224  A    between atoms: _540  and  _541
REMARK  225  A    between atoms: _541  and  _542
REMARK                            x       y       z     vdW  Elec       q    Type
REMARK                         _______ _______ _______ _____ _____    ______ ____
ROOT
ATOM      1  O   HOH     1      14.558  38.095  55.592  0.00  0.00    +0.000 OA
ENDROOT
TORSDOF 0
REMARK  Name = ../refined-set-2016/3f8f/3f8f_pocket.pdb
REMARK  225 active torsions:
REMARK  status: ('A' for Active; 'I' for Inactive)
REMARK    1  A    between atoms: _1  and  _3
REMARK    2  A    between atoms: _3  and  _4
REMARK    3  A    between atoms: _3  and  _6
REMARK    4  A    between atoms: _6  and  _7
REMARK    5  A    between atoms: _11  and  _12
REMARK    6  A    between atoms: _17  and  _19
REMARK    7  A    between atoms: _19  and  _20
REMARK    8  A    between atoms: _19  and  _22
REMARK    9  A    between atoms: _22  and  _23
REMARK   10  A    between atoms: _23  and  _24
REMARK   11  A    between atoms: _27  and  _29
REMARK   12  A    between atoms: _29  and  _30
REMARK   13  A    between atoms: _29  and  _32
REMARK   14  A    between atoms: _32  and  _33
REMARK   15  A    between atoms: _33  and  _34
REMARK   16  A    between atoms: _36  and  _38
REMARK   17  A    between atoms: _38  and  _39
REMARK   18  A    between atoms: _38  and  _41
REMARK   19  A    between atoms: _41  and  _42
REMARK   20  A    between atoms: _45  and  _47
REMARK   21  A    between atoms: _47  and  _48
REMARK   22  A    between atoms: _47  and  _50
REMARK   23  A    between atoms: _50  and  _51
REMARK   24  A    between atoms: _51  and  _52
REMARK   25  A    between atoms: _52  and  _53
REMARK   26  A    between atoms: _62  and  _64
REMARK   27  A    between atoms: _64  and  _65
REMARK   28  A    between atoms: _68  and  _70
REMARK   29  A    between atoms: _70  and  _71
REMARK   30  A    between atoms: _70  and  _73
REMARK   31  A    between atoms: _73  and  _74
REMARK   32  A    between atoms: _74  and  _75
REMARK   33  A    between atoms: _80  and  _82
REMARK   34  A    between atoms: _82  and  _83
REMARK   35  A    between atoms: _82  and  _85
REMARK   36  A    between atoms: _85  and  _86
REMARK   37  A    between atoms: _91  and  _93
REMARK   38  A    between atoms: _93  and  _94
REMARK   39  A    between atoms: _93  and  _96
REMARK   40  A    between atoms: _99  and  _101
REMARK   41  A    between atoms: _101  and  _102
REMARK   42  A    between atoms: _101  and  _104
REMARK   43  A    between atoms: _104  and  _105
REMARK   44  A    between atoms: _108  and  _110
REMARK   45  A    between atoms: _110  and  _111
REMARK   46  A    between atoms: _110  and  _113
REMARK   47  A    between atoms: _113  and  _114
REMARK   48  A    between atoms: _117  and  _119
REMARK   49  A    between atoms: _119  and  _120
REMARK   50  A    between atoms: _119  and  _122
REMARK   51  A    between atoms: _122  and  _123
REMARK   52  A    between atoms: _128  and  _130
REMARK   53  A    between atoms: _130  and  _131
REMARK   54  A    between atoms: _130  and  _133
REMARK   55  A    between atoms: _133  and  _134
REMARK   56  A    between atoms: _134  and  _135
REMARK   57  A    between atoms: _135  and  _136
REMARK   58  A    between atoms: _136  and  _137
REMARK   59  A    between atoms: _141  and  _143
REMARK   60  A    between atoms: _143  and  _144
REMARK   61  A    between atoms: _146  and  _148
REMARK   62  A    between atoms: _148  and  _149
REMARK   63  A    between atoms: _148  and  _151
REMARK   64  A    between atoms: _151  and  _152
REMARK   65  A    between atoms: _157  and  _159
REMARK   66  A    between atoms: _159  and  _160
REMARK   67  A    between atoms: _159  and  _162
REMARK   68  A    between atoms: _162  and  _163
REMARK   69  A    between atoms: _163  and  _164
REMARK   70  A    between atoms: _167  and  _169
REMARK   71  A    between atoms: _169  and  _170
REMARK   72  A    between atoms: _169  and  _172
REMARK   73  A    between atoms: _172  and  _173
REMARK   74  A    between atoms: _178  and  _180
REMARK   75  A    between atoms: _180  and  _181
REMARK   76  A    between atoms: _180  and  _183
REMARK   77  A    between atoms: _183  and  _184
REMARK   78  A    between atoms: _184  and  _185
REMARK   79  A    between atoms: _187  and  _189
REMARK   80  A    between atoms: _189  and  _190
REMARK   81  A    between atoms: _189  and  _192
REMARK   82  A    between atoms: _192  and  _193
REMARK   83  A    between atoms: _193  and  _194
REMARK   84  A    between atoms: _194  and  _195
REMARK   85  A    between atoms: _204  and  _206
REMARK   86  A    between atoms: _206  and  _207
REMARK   87  A    between atoms: _206  and  _209
REMARK   88  A    between atoms: _209  and  _210
REMARK   89  A    between atoms: _213  and  _215
REMARK   90  A    between atoms: _215  and  _216
REMARK   91  A    between atoms: _219  and  _221
REMARK   92  A    between atoms: _221  and  _222
REMARK   93  A    between atoms: _221  and  _224
REMARK   94  A    between atoms: _224  and  _225
REMARK   95  A    between atoms: _231  and  _233
REMARK   96  A    between atoms: _233  and  _234
REMARK   97  A    between atoms: _233  and  _236
REMARK   98  A    between atoms: _236  and  _237
REMARK   99  A    between atoms: _237  and  _238
REMARK  100  A    between atoms: _241  and  _243
REMARK  101  A    between atoms: _243  and  _244
REMARK  102  A    between atoms: _243  and  _246
REMARK  103  A    between atoms: _246  and  _247
REMARK  104  A    between atoms: _249  and  _251
REMARK  105  A    between atoms: _251  and  _252
REMARK  106  A    between atoms: _251  and  _254
REMARK  107  A    between atoms: _254  and  _255
REMARK  108  A    between atoms: _265  and  _267
REMARK  109  A    between atoms: _267  and  _268
REMARK  110  A    between atoms: _267  and  _270
REMARK  111  A    between atoms: _270  and  _271
REMARK  112  A    between atoms: _273  and  _275
REMARK  113  A    between atoms: _275  and  _276
REMARK  114  A    between atoms: _275  and  _278
REMARK  115  A    between atoms: _281  and  _283
REMARK  116  A    between atoms: _283  and  _284
REMARK  117  A    between atoms: _283  and  _286
REMARK  118  A    between atoms: _286  and  _287
REMARK  119  A    between atoms: _290  and  _292
REMARK  120  A    between atoms: _292  and  _293
REMARK  121  A    between atoms: _292  and  _295
REMARK  122  A    between atoms: _295  and  _296
REMARK  123  A    between atoms: _299  and  _301
REMARK  124  A    between atoms: _301  and  _302
REMARK  125  A    between atoms: _301  and  _304
REMARK  126  A    between atoms: _304  and  _305
REMARK  127  A    between atoms: _305  and  _306
REMARK  128  A    between atoms: _309  and  _311
REMARK  129  A    between atoms: _311  and  _312
REMARK  130  A    between atoms: _311  and  _314
REMARK  131  A    between atoms: _314  and  _315
REMARK  132  A    between atoms: _315  and  _316
REMARK  133  A    between atoms: _318  and  _320
REMARK  134  A    between atoms: _320  and  _321
REMARK  135  A    between atoms: _320  and  _323
REMARK  136  A    between atoms: _323  and  _324
REMARK  137  A    between atoms: _327  and  _329
REMARK  138  A    between atoms: _329  and  _330
REMARK  139  A    between atoms: _329  and  _332
REMARK  140  A    between atoms: _332  and  _333
REMARK  141  A    between atoms: _333  and  _334
REMARK  142  A    between atoms: _334  and  _335
REMARK  143  A    between atoms: _344  and  _346
REMARK  144  A    between atoms: _346  and  _347
REMARK  145  A    between atoms: _350  and  _352
REMARK  146  A    between atoms: _352  and  _353
REMARK  147  A    between atoms: _352  and  _355
REMARK  148  A    between atoms: _355  and  _356
REMARK  149  A    between atoms: _356  and  _357
REMARK  150  A    between atoms: _362  and  _364
REMARK  151  A    between atoms: _364  and  _365
REMARK  152  A    between atoms: _364  and  _367
REMARK  153  A    between atoms: _367  and  _368
REMARK  154  A    between atoms: _373  and  _375
REMARK  155  A    between atoms: _375  and  _376
REMARK  156  A    between atoms: _375  and  _378
REMARK  157  A    between atoms: _381  and  _383
REMARK  158  A    between atoms: _383  and  _384
REMARK  159  A    between atoms: _383  and  _386
REMARK  160  A    between atoms: _386  and  _387
REMARK  161  A    between atoms: _390  and  _392
REMARK  162  A    between atoms: _392  and  _393
REMARK  163  A    between atoms: _392  and  _395
REMARK  164  A    between atoms: _395  and  _396
REMARK  165  A    between atoms: _399  and  _401
REMARK  166  A    between atoms: _401  and  _402
REMARK  167  A    between atoms: _401  and  _404
REMARK  168  A    between atoms: _404  and  _405
REMARK  169  A    between atoms: _410  and  _412
REMARK  170  A    between atoms: _412  and  _413
REMARK  171  A    between atoms: _412  and  _415
REMARK  172  A    between atoms: _415  and  _416
REMARK  173  A    between atoms: _421  and  _423
REMARK  174  A    between atoms: _423  and  _424
REMARK  175  A    between atoms: _423  and  _426
REMARK  176  A    between atoms: _426  and  _427
REMARK  177  A    between atoms: _427  and  _428
REMARK  178  A    between atoms: _430  and  _432
REMARK  179  A    between atoms: _432  and  _433
REMARK  180  A    between atoms: _432  and  _435
REMARK  181  A    between atoms: _435  and  _436
REMARK  182  A    between atoms: _439  and  _441
REMARK  183  A    between atoms: _441  and  _442
REMARK  184  A    between atoms: _445  and  _447
REMARK  185  A    between atoms: _447  and  _448
REMARK  186  A    between atoms: _447  and  _450
REMARK  187  A    between atoms: _450  and  _451
REMARK  188  A    between atoms: _457  and  _459
REMARK  189  A    between atoms: _459  and  _460
REMARK  190  A    between atoms: _459  and  _462
REMARK  191  A    between atoms: _462  and  _463
REMARK  192  A    between atoms: _463  and  _464
REMARK  193  A    between atoms: _467  and  _469
REMARK  194  A    between atoms: _469  and  _470
REMARK  195  A    between atoms: _469  and  _472
REMARK  196  A    between atoms: _472  and  _473
REMARK  197  A    between atoms: _475  and  _477
REMARK  198  A    between atoms: _477  and  _478
REMARK  199  A    between atoms: _477  and  _480
REMARK  200  A    between atoms: _480  and  _481
REMARK  201  A    between atoms: _491  and  _493
REMARK  202  A    between atoms: _493  and  _494
REMARK  203  A    between atoms: _493  and  _496
REMARK  204  A    between atoms: _496  and  _497
REMARK  205  A    between atoms: _499  and  _501
REMARK  206  A    between atoms: _501  and  _502
REMARK  207  A    between atoms: _501  and  _504
REMARK  208  A    between atoms: _507  and  _509
REMARK  209  A    between atoms: _509  and  _510
REMARK  210  A    between atoms: _509  and  _512
REMARK  211  A    between atoms: _512  and  _513
REMARK  212  A    between atoms: _516  and  _518
REMARK  213  A    between atoms: _518  and  _519
REMARK  214  A    between atoms: _518  and  _521
REMARK  215  A    between atoms: _521  and  _522
REMARK  216  A    between atoms: _525  and  _527
REMARK  217  A    between atoms: _527  and  _528
REMARK  218  A    between atoms: _527  and  _530
REMARK  219  A    between atoms: _530  and  _531
REMARK  220  A    between atoms: _531  and  _532
REMARK  221  A    between atoms: _535  and  _537
REMARK  222  A    between atoms: _537  and  _538
REMARK  223  A    between atoms: _537  and  _540
REMARK  224  A    between atoms: _540  and  _541
REMARK  225  A    between atoms: _541  and  _542
REMARK                            x       y       z     vdW  Elec       q    Type
REMARK                         _______ _______ _______ _____ _____    ______ ____
ROOT
ATOM      1  O   HOH     1      12.162  38.757  57.346  0.00  0.00    +0.000 OA
ENDROOT
TORSDOF 0
REMARK  Name = ../refined-set-2016/3f8f/3f8f_pocket.pdb
REMARK  225 active torsions:
REMARK  status: ('A' for Active; 'I' for Inactive)
REMARK    1  A    between atoms: _1  and  _3
REMARK    2  A    between atoms: _3  and  _4
REMARK    3  A    between atoms: _3  and  _6
REMARK    4  A    between atoms: _6  and  _7
REMARK    5  A    between atoms: _11  and  _12
REMARK    6  A    between atoms: _17  and  _19
REMARK    7  A    between atoms: _19  and  _20
REMARK    8  A    between atoms: _19  and  _22
REMARK    9  A    between atoms: _22  and  _23
REMARK   10  A    between atoms: _23  and  _24
REMARK   11  A    between atoms: _27  and  _29
REMARK   12  A    between atoms: _29  and  _30
REMARK   13  A    between atoms: _29  and  _32
REMARK   14  A    between atoms: _32  and  _33
REMARK   15  A    between atoms: _33  and  _34
REMARK   16  A    between atoms: _36  and  _38
REMARK   17  A    between atoms: _38  and  _39
REMARK   18  A    between atoms: _38  and  _41
REMARK   19  A    between atoms: _41  and  _42
REMARK   20  A    between atoms: _45  and  _47
REMARK   21  A    between atoms: _47  and  _48
REMARK   22  A    between atoms: _47  and  _50
REMARK   23  A    between atoms: _50  and  _51
REMARK   24  A    between atoms: _51  and  _52
REMARK   25  A    between atoms: _52  and  _53
REMARK   26  A    between atoms: _62  and  _64
REMARK   27  A    between atoms: _64  and  _65
REMARK   28  A    between atoms: _68  and  _70
REMARK   29  A    between atoms: _70  and  _71
REMARK   30  A    between atoms: _70  and  _73
REMARK   31  A    between atoms: _73  and  _74
REMARK   32  A    between atoms: _74  and  _75
REMARK   33  A    between atoms: _80  and  _82
REMARK   34  A    between atoms: _82  and  _83
REMARK   35  A    between atoms: _82  and  _85
REMARK   36  A    between atoms: _85  and  _86
REMARK   37  A    between atoms: _91  and  _93
REMARK   38  A    between atoms: _93  and  _94
REMARK   39  A    between atoms: _93  and  _96
REMARK   40  A    between atoms: _99  and  _101
REMARK   41  A    between atoms: _101  and  _102
REMARK   42  A    between atoms: _101  and  _104
REMARK   43  A    between atoms: _104  and  _105
REMARK   44  A    between atoms: _108  and  _110
REMARK   45  A    between atoms: _110  and  _111
REMARK   46  A    between atoms: _110  and  _113
REMARK   47  A    between atoms: _113  and  _114
REMARK   48  A    between atoms: _117  and  _119
REMARK   49  A    between atoms: _119  and  _120
REMARK   50  A    between atoms: _119  and  _122
REMARK   51  A    between atoms: _122  and  _123
REMARK   52  A    between atoms: _128  and  _130
REMARK   53  A    between atoms: _130  and  _131
REMARK   54  A    between atoms: _130  and  _133
REMARK   55  A    between atoms: _133  and  _134
REMARK   56  A    between atoms: _134  and  _135
REMARK   57  A    between atoms: _135  and  _136
REMARK   58  A    between atoms: _136  and  _137
REMARK   59  A    between atoms: _141  and  _143
REMARK   60  A    between atoms: _143  and  _144
REMARK   61  A    between atoms: _146  and  _148
REMARK   62  A    between atoms: _148  and  _149
REMARK   63  A    between atoms: _148  and  _151
REMARK   64  A    between atoms: _151  and  _152
REMARK   65  A    between atoms: _157  and  _159
REMARK   66  A    between atoms: _159  and  _160
REMARK   67  A    between atoms: _159  and  _162
REMARK   68  A    between atoms: _162  and  _163
REMARK   69  A    between atoms: _163  and  _164
REMARK   70  A    between atoms: _167  and  _169
REMARK   71  A    between atoms: _169  and  _170
REMARK   72  A    between atoms: _169  and  _172
REMARK   73  A    between atoms: _172  and  _173
REMARK   74  A    between atoms: _178  and  _180
REMARK   75  A    between atoms: _180  and  _181
REMARK   76  A    between atoms: _180  and  _183
REMARK   77  A    between atoms: _183  and  _184
REMARK   78  A    between atoms: _184  and  _185
REMARK   79  A    between atoms: _187  and  _189
REMARK   80  A    between atoms: _189  and  _190
REMARK   81  A    between atoms: _189  and  _192
REMARK   82  A    between atoms: _192  and  _193
REMARK   83  A    between atoms: _193  and  _194
REMARK   84  A    between atoms: _194  and  _195
REMARK   85  A    between atoms: _204  and  _206
REMARK   86  A    between atoms: _206  and  _207
REMARK   87  A    between atoms: _206  and  _209
REMARK   88  A    between atoms: _209  and  _210
REMARK   89  A    between atoms: _213  and  _215
REMARK   90  A    between atoms: _215  and  _216
REMARK   91  A    between atoms: _219  and  _221
REMARK   92  A    between atoms: _221  and  _222
REMARK   93  A    between atoms: _221  and  _224
REMARK   94  A    between atoms: _224  and  _225
REMARK   95  A    between atoms: _231  and  _233
REMARK   96  A    between atoms: _233  and  _234
REMARK   97  A    between atoms: _233  and  _236
REMARK   98  A    between atoms: _236  and  _237
REMARK   99  A    between atoms: _237  and  _238
REMARK  100  A    between atoms: _241  and  _243
REMARK  101  A    between atoms: _243  and  _244
REMARK  102  A    between atoms: _243  and  _246
REMARK  103  A    between atoms: _246  and  _247
REMARK  104  A    between atoms: _249  and  _251
REMARK  105  A    between atoms: _251  and  _252
REMARK  106  A    between atoms: _251  and  _254
REMARK  107  A    between atoms: _254  and  _255
REMARK  108  A    between atoms: _265  and  _267
REMARK  109  A    between atoms: _267  and  _268
REMARK  110  A    between atoms: _267  and  _270
REMARK  111  A    between atoms: _270  and  _271
REMARK  112  A    between atoms: _273  and  _275
REMARK  113  A    between atoms: _275  and  _276
REMARK  114  A    between atoms: _275  and  _278
REMARK  115  A    between atoms: _281  and  _283
REMARK  116  A    between atoms: _283  and  _284
REMARK  117  A    between atoms: _283  and  _286
REMARK  118  A    between atoms: _286  and  _287
REMARK  119  A    between atoms: _290  and  _292
REMARK  120  A    between atoms: _292  and  _293
REMARK  121  A    between atoms: _292  and  _295
REMARK  122  A    between atoms: _295  and  _296
REMARK  123  A    between atoms: _299  and  _301
REMARK  124  A    between atoms: _301  and  _302
REMARK  125  A    between atoms: _301  and  _304
REMARK  126  A    between atoms: _304  and  _305
REMARK  127  A    between atoms: _305  and  _306
REMARK  128  A    between atoms: _309  and  _311
REMARK  129  A    between atoms: _311  and  _312
REMARK  130  A    between atoms: _311  and  _314
REMARK  131  A    between atoms: _314  and  _315
REMARK  132  A    between atoms: _315  and  _316
REMARK  133  A    between atoms: _318  and  _320
REMARK  134  A    between atoms: _320  and  _321
REMARK  135  A    between atoms: _320  and  _323
REMARK  136  A    between atoms: _323  and  _324
REMARK  137  A    between atoms: _327  and  _329
REMARK  138  A    between atoms: _329  and  _330
REMARK  139  A    between atoms: _329  and  _332
REMARK  140  A    between atoms: _332  and  _333
REMARK  141  A    between atoms: _333  and  _334
REMARK  142  A    between atoms: _334  and  _335
REMARK  143  A    between atoms: _344  and  _346
REMARK  144  A    between atoms: _346  and  _347
REMARK  145  A    between atoms: _350  and  _352
REMARK  146  A    between atoms: _352  and  _353
REMARK  147  A    between atoms: _352  and  _355
REMARK  148  A    between atoms: _355  and  _356
REMARK  149  A    between atoms: _356  and  _357
REMARK  150  A    between atoms: _362  and  _364
REMARK  151  A    between atoms: _364  and  _365
REMARK  152  A    between atoms: _364  and  _367
REMARK  153  A    between atoms: _367  and  _368
REMARK  154  A    between atoms: _373  and  _375
REMARK  155  A    between atoms: _375  and  _376
REMARK  156  A    between atoms: _375  and  _378
REMARK  157  A    between atoms: _381  and  _383
REMARK  158  A    between atoms: _383  and  _384
REMARK  159  A    between atoms: _383  and  _386
REMARK  160  A    between atoms: _386  and  _387
REMARK  161  A    between atoms: _390  and  _392
REMARK  162  A    between atoms: _392  and  _393
REMARK  163  A    between atoms: _392  and  _395
REMARK  164  A    between atoms: _395  and  _396
REMARK  165  A    between atoms: _399  and  _401
REMARK  166  A    between atoms: _401  and  _402
REMARK  167  A    between atoms: _401  and  _404
REMARK  168  A    between atoms: _404  and  _405
REMARK  169  A    between atoms: _410  and  _412
REMARK  170  A    between atoms: _412  and  _413
REMARK  171  A    between atoms: _412  and  _415
REMARK  172  A    between atoms: _415  and  _416
REMARK  173  A    between atoms: _421  and  _423
REMARK  174  A    between atoms: _423  and  _424
REMARK  175  A    between atoms: _423  and  _426
REMARK  176  A    between atoms: _426  and  _427
REMARK  177  A    between atoms: _427  and  _428
REMARK  178  A    between atoms: _430  and  _432
REMARK  179  A    between atoms: _432  and  _433
REMARK  180  A    between atoms: _432  and  _435
REMARK  181  A    between atoms: _435  and  _436
REMARK  182  A    between atoms: _439  and  _441
REMARK  183  A    between atoms: _441  and  _442
REMARK  184  A    between atoms: _445  and  _447
REMARK  185  A    between atoms: _447  and  _448
REMARK  186  A    between atoms: _447  and  _450
REMARK  187  A    between atoms: _450  and  _451
REMARK  188  A    between atoms: _457  and  _459
REMARK  189  A    between atoms: _459  and  _460
REMARK  190  A    between atoms: _459  and  _462
REMARK  191  A    between atoms: _462  and  _463
REMARK  192  A    between atoms: _463  and  _464
REMARK  193  A    between atoms: _467  and  _469
REMARK  194  A    between atoms: _469  and  _470
REMARK  195  A    between atoms: _469  and  _472
REMARK  196  A    between atoms: _472  and  _473
REMARK  197  A    between atoms: _475  and  _477
REMARK  198  A    between atoms: _477  and  _478
REMARK  199  A    between atoms: _477  and  _480
REMARK  200  A    between atoms: _480  and  _481
REMARK  201  A    between atoms: _491  and  _493
REMARK  202  A    between atoms: _493  and  _494
REMARK  203  A    between atoms: _493  and  _496
REMARK  204  A    between atoms: _496  and  _497
REMARK  205  A    between atoms: _499  and  _501
REMARK  206  A    between atoms: _501  and  _502
REMARK  207  A    between atoms: _501  and  _504
REMARK  208  A    between atoms: _507  and  _509
REMARK  209  A    between atoms: _509  and  _510
REMARK  210  A    between atoms: _509  and  _512
REMARK  211  A    between atoms: _512  and  _513
REMARK  212  A    between atoms: _516  and  _518
REMARK  213  A    between atoms: _518  and  _519
REMARK  214  A    between atoms: _518  and  _521
REMARK  215  A    between atoms: _521  and  _522
REMARK  216  A    between atoms: _525  and  _527
REMARK  217  A    between atoms: _527  and  _528
REMARK  218  A    between atoms: _527  and  _530
REMARK  219  A    between atoms: _530  and  _531
REMARK  220  A    between atoms: _531  and  _532
REMARK  221  A    between atoms: _535  and  _537
REMARK  222  A    between atoms: _537  and  _538
REMARK  223  A    between atoms: _537  and  _540
REMARK  224  A    between atoms: _540  and  _541
REMARK  225  A    between atoms: _541  and  _542
REMARK                            x       y       z     vdW  Elec       q    Type
REMARK                         _______ _______ _______ _____ _____    ______ ____
ROOT
ATOM      1  O   HOH     1      27.654  40.951  45.144  0.00  0.00    +0.000 OA
ENDROOT
TORSDOF 0
