REMARK  Name = ../refined-set-2016/4eor/4eor_pocket.pdb
REMARK  229 active torsions:
REMARK  status: ('A' for Active; 'I' for Inactive)
REMARK    1  A    between atoms: _1  and  _3
REMARK    2  A    between atoms: _3  and  _4
REMARK    3  A    between atoms: _3  and  _6
REMARK    4  A    between atoms: _6  and  _7
REMARK    5  A    between atoms: _7  and  _8
REMARK    6  A    between atoms: _11  and  _13
REMARK    7  A    between atoms: _13  and  _14
REMARK    8  A    between atoms: _13  and  _16
REMARK    9  A    between atoms: _16  and  _17
REMARK   10  A    between atoms: _17  and  _18
REMARK   11  A    between atoms: _18  and  _19
REMARK   12  A    between atoms: _19  and  _20
REMARK   13  A    between atoms: _24  and  _26
REMARK   14  A    between atoms: _26  and  _27
REMARK   15  A    between atoms: _26  and  _29
REMARK   16  A    between atoms: _29  and  _30
REMARK   17  A    between atoms: _33  and  _35
REMARK   18  A    between atoms: _35  and  _36
REMARK   19  A    between atoms: _38  and  _40
REMARK   20  A    between atoms: _40  and  _41
REMARK   21  A    between atoms: _40  and  _43
REMARK   22  A    between atoms: _43  and  _44
REMARK   23  A    between atoms: _44  and  _45
REMARK   24  A    between atoms: _48  and  _50
REMARK   25  A    between atoms: _50  and  _51
REMARK   26  A    between atoms: _53  and  _55
REMARK   27  A    between atoms: _55  and  _56
REMARK   28  A    between atoms: _55  and  _58
REMARK   29  A    between atoms: _58  and  _59
REMARK   30  A    between atoms: _62  and  _64
REMARK   31  A    between atoms: _64  and  _65
REMARK   32  A    between atoms: _64  and  _67
REMARK   33  A    between atoms: _67  and  _68
REMARK   34  A    between atoms: _73  and  _74
REMARK   35  A    between atoms: _76  and  _78
REMARK   36  A    between atoms: _78  and  _79
REMARK   37  A    between atoms: _81  and  _83
REMARK   38  A    between atoms: _83  and  _84
REMARK   39  A    between atoms: _83  and  _86
REMARK   40  A    between atoms: _89  and  _91
REMARK   41  A    between atoms: _91  and  _92
REMARK   42  A    between atoms: _91  and  _94
REMARK   43  A    between atoms: _97  and  _99
REMARK   44  A    between atoms: _99  and  _100
REMARK   45  A    between atoms: _99  and  _102
REMARK   46  A    between atoms: _102  and  _103
REMARK   47  A    between atoms: _108  and  _109
REMARK   48  A    between atoms: _111  and  _113
REMARK   49  A    between atoms: _113  and  _114
REMARK   50  A    between atoms: _113  and  _116
REMARK   51  A    between atoms: _116  and  _117
REMARK   52  A    between atoms: _117  and  _118
REMARK   53  A    between atoms: _118  and  _119
REMARK   54  A    between atoms: _119  and  _120
REMARK   55  A    between atoms: _124  and  _126
REMARK   56  A    between atoms: _126  and  _127
REMARK   57  A    between atoms: _126  and  _129
REMARK   58  A    between atoms: _132  and  _134
REMARK   59  A    between atoms: _134  and  _135
REMARK   60  A    between atoms: _134  and  _137
REMARK   61  A    between atoms: _140  and  _142
REMARK   62  A    between atoms: _142  and  _143
REMARK   63  A    between atoms: _146  and  _148
REMARK   64  A    between atoms: _148  and  _149
REMARK   65  A    between atoms: _148  and  _151
REMARK   66  A    between atoms: _151  and  _152
REMARK   67  A    between atoms: _155  and  _157
REMARK   68  A    between atoms: _157  and  _158
REMARK   69  A    between atoms: _157  and  _160
REMARK   70  A    between atoms: _160  and  _161
REMARK   71  A    between atoms: _161  and  _162
REMARK   72  A    between atoms: _162  and  _163
REMARK   73  A    between atoms: _163  and  _164
REMARK   74  A    between atoms: _168  and  _170
REMARK   75  A    between atoms: _170  and  _171
REMARK   76  A    between atoms: _170  and  _173
REMARK   77  A    between atoms: _173  and  _174
REMARK   78  A    between atoms: _174  and  _175
REMARK   79  A    between atoms: _178  and  _180
REMARK   80  A    between atoms: _180  and  _181
REMARK   81  A    between atoms: _180  and  _183
REMARK   82  A    between atoms: _183  and  _184
REMARK   83  A    between atoms: _187  and  _189
REMARK   84  A    between atoms: _189  and  _190
REMARK   85  A    between atoms: _189  and  _192
REMARK   86  A    between atoms: _195  and  _197
REMARK   87  A    between atoms: _197  and  _198
REMARK   88  A    between atoms: _197  and  _200
REMARK   89  A    between atoms: _200  and  _201
REMARK   90  A    between atoms: _201  and  _202
REMARK   91  A    between atoms: _202  and  _203
REMARK   92  A    between atoms: _203  and  _204
REMARK   93  A    between atoms: _208  and  _210
REMARK   94  A    between atoms: _210  and  _211
REMARK   95  A    between atoms: _210  and  _213
REMARK   96  A    between atoms: _213  and  _214
REMARK   97  A    between atoms: _217  and  _219
REMARK   98  A    between atoms: _219  and  _220
REMARK   99  A    between atoms: _219  and  _222
REMARK  100  A    between atoms: _222  and  _223
REMARK  101  A    between atoms: _226  and  _228
REMARK  102  A    between atoms: _228  and  _229
REMARK  103  A    between atoms: _228  and  _231
REMARK  104  A    between atoms: _231  and  _232
REMARK  105  A    between atoms: _235  and  _237
REMARK  106  A    between atoms: _237  and  _238
REMARK  107  A    between atoms: _237  and  _240
REMARK  108  A    between atoms: _243  and  _245
REMARK  109  A    between atoms: _245  and  _246
REMARK  110  A    between atoms: _245  and  _248
REMARK  111  A    between atoms: _248  and  _249
REMARK  112  A    between atoms: _255  and  _257
REMARK  113  A    between atoms: _257  and  _258
REMARK  114  A    between atoms: _257  and  _260
REMARK  115  A    between atoms: _260  and  _261
REMARK  116  A    between atoms: _261  and  _262
REMARK  117  A    between atoms: _265  and  _267
REMARK  118  A    between atoms: _267  and  _268
REMARK  119  A    between atoms: _267  and  _270
REMARK  120  A    between atoms: _270  and  _271
REMARK  121  A    between atoms: _277  and  _279
REMARK  122  A    between atoms: _279  and  _280
REMARK  123  A    between atoms: _279  and  _282
REMARK  124  A    between atoms: _282  and  _283
REMARK  125  A    between atoms: _286  and  _288
REMARK  126  A    between atoms: _288  and  _289
REMARK  127  A    between atoms: _288  and  _291
REMARK  128  A    between atoms: _291  and  _292
REMARK  129  A    between atoms: _297  and  _299
REMARK  130  A    between atoms: _299  and  _300
REMARK  131  A    between atoms: _299  and  _302
REMARK  132  A    between atoms: _302  and  _303
REMARK  133  A    between atoms: _303  and  _304
REMARK  134  A    between atoms: _309  and  _311
REMARK  135  A    between atoms: _311  and  _312
REMARK  136  A    between atoms: _311  and  _314
REMARK  137  A    between atoms: _314  and  _315
REMARK  138  A    between atoms: _318  and  _320
REMARK  139  A    between atoms: _320  and  _321
REMARK  140  A    between atoms: _320  and  _323
REMARK  141  A    between atoms: _323  and  _324
REMARK  142  A    between atoms: _327  and  _329
REMARK  143  A    between atoms: _329  and  _330
REMARK  144  A    between atoms: _329  and  _332
REMARK  145  A    between atoms: _332  and  _333
REMARK  146  A    between atoms: _333  and  _334
REMARK  147  A    between atoms: _334  and  _335
REMARK  148  A    between atoms: _335  and  _336
REMARK  149  A    between atoms: _340  and  _342
REMARK  150  A    between atoms: _342  and  _343
REMARK  151  A    between atoms: _342  and  _345
REMARK  152  A    between atoms: _345  and  _346
REMARK  153  A    between atoms: _346  and  _347
REMARK  154  A    between atoms: _347  and  _348
REMARK  155  A    between atoms: _348  and  _349
REMARK  156  A    between atoms: _353  and  _355
REMARK  157  A    between atoms: _355  and  _356
REMARK  158  A    between atoms: _355  and  _358
REMARK  159  A    between atoms: _358  and  _359
REMARK  160  A    between atoms: _365  and  _367
REMARK  161  A    between atoms: _367  and  _368
REMARK  162  A    between atoms: _367  and  _370
REMARK  163  A    between atoms: _370  and  _371
REMARK  164  A    between atoms: _376  and  _378
REMARK  165  A    between atoms: _378  and  _379
REMARK  166  A    between atoms: _378  and  _381
REMARK  167  A    between atoms: _381  and  _382
REMARK  168  A    between atoms: _385  and  _387
REMARK  169  A    between atoms: _387  and  _388
REMARK  170  A    between atoms: _387  and  _390
REMARK  171  A    between atoms: _390  and  _391
REMARK  172  A    between atoms: _391  and  _392
REMARK  173  A    between atoms: _392  and  _393
REMARK  174  A    between atoms: _393  and  _394
REMARK  175  A    between atoms: _399  and  _400
REMARK  176  A    between atoms: _405  and  _407
REMARK  177  A    between atoms: _407  and  _408
REMARK  178  A    between atoms: _407  and  _410
REMARK  179  A    between atoms: _410  and  _411
REMARK  180  A    between atoms: _411  and  _412
REMARK  181  A    between atoms: _417  and  _419
REMARK  182  A    between atoms: _419  and  _420
REMARK  183  A    between atoms: _419  and  _422
REMARK  184  A    between atoms: _422  and  _423
REMARK  185  A    between atoms: _428  and  _430
REMARK  186  A    between atoms: _430  and  _431
REMARK  187  A    between atoms: _430  and  _433
REMARK  188  A    between atoms: _433  and  _434
REMARK  189  A    between atoms: _437  and  _439
REMARK  190  A    between atoms: _439  and  _440
REMARK  191  A    between atoms: _439  and  _442
REMARK  192  A    between atoms: _442  and  _443
REMARK  193  A    between atoms: _446  and  _448
REMARK  194  A    between atoms: _448  and  _449
REMARK  195  A    between atoms: _448  and  _451
REMARK  196  A    between atoms: _451  and  _452
REMARK  197  A    between atoms: _455  and  _457
REMARK  198  A    between atoms: _457  and  _458
REMARK  199  A    between atoms: _457  and  _460
REMARK  200  A    between atoms: _460  and  _461
REMARK  201  A    between atoms: _466  and  _468
REMARK  202  A    between atoms: _468  and  _469
REMARK  203  A    between atoms: _468  and  _471
REMARK  204  A    between atoms: _471  and  _472
REMARK  205  A    between atoms: _472  and  _473
REMARK  206  A    between atoms: _473  and  _474
REMARK  207  A    between atoms: _474  and  _475
REMARK  208  A    between atoms: _479  and  _481
REMARK  209  A    between atoms: _481  and  _482
REMARK  210  A    between atoms: _481  and  _484
REMARK  211  A    between atoms: _484  and  _485
REMARK  212  A    between atoms: _488  and  _490
REMARK  213  A    between atoms: _490  and  _491
REMARK  214  A    between atoms: _494  and  _496
REMARK  215  A    between atoms: _496  and  _497
REMARK  216  A    between atoms: _496  and  _499
REMARK  217  A    between atoms: _499  and  _500
REMARK  218  A    between atoms: _503  and  _505
REMARK  219  A    between atoms: _505  and  _506
REMARK  220  A    between atoms: _505  and  _508
REMARK  221  A    between atoms: _508  and  _509
REMARK  222  A    between atoms: _515  and  _517
REMARK  223  A    between atoms: _517  and  _518
REMARK  224  A    between atoms: _520  and  _522
REMARK  225  A    between atoms: _522  and  _523
REMARK  226  A    between atoms: _522  and  _525
REMARK  227  A    between atoms: _525  and  _526
REMARK  228  A    between atoms: _526  and  _527
REMARK  229  A    between atoms: _527  and  _528
REMARK                            x       y       z     vdW  Elec       q    Type
REMARK                         _______ _______ _______ _____ _____    ______ ____
ROOT
ATOM      1  C   THR A   7      -1.542 -14.136  15.656  0.00  0.00    +0.243 C 
ATOM      2  N   TYR A   8      -2.367 -13.647  16.576  0.00  0.00    -0.297 N 
ATOM      3  H   TYR A   8      -3.303 -14.080  16.710  0.00  0.00    +0.150 HD
ATOM      4  O   THR A   7      -0.554 -13.518  15.248  0.00  0.00    -0.273 OA
ENDROOT
BRANCH   1   5
ATOM      5  CA  THR A   7      -1.885 -15.508  15.087  0.00  0.00    +0.176 C 
BRANCH   5   8
ATOM      6  C   GLY A   6      -1.311 -16.700  17.167  0.00  0.00    +0.243 C 
ATOM      7  O   GLY A   6      -0.211 -16.148  17.278  0.00  0.00    -0.273 OA
ATOM      8  N   THR A   7      -2.162 -16.462  16.167  0.00  0.00    -0.295 N 
ATOM      9  H   THR A   7      -3.065 -16.978  16.152  0.00  0.00    +0.150 HD
BRANCH   6  10
ATOM     10  CA  GLY A   6      -1.774 -17.712  18.194  0.00  0.00    +0.176 C 
BRANCH  10  12
ATOM     11  C   GLU A   5      -0.236 -17.850  20.081  0.00  0.00    +0.241 C 
ATOM     12  N   GLY A   6      -1.364 -17.379  19.555  0.00  0.00    -0.295 N 
ATOM     13  H   GLY A   6      -1.969 -16.757  20.128  0.00  0.00    +0.150 HD
ATOM     14  O   GLU A   5       0.558 -18.558  19.455  0.00  0.00    -0.273 OA
BRANCH  11  15
ATOM     15  CA  GLU A   5       0.036 -17.479  21.526  0.00  0.00    +0.149 C 
BRANCH  15  18
ATOM     16  C   GLY A   4      -0.600 -18.708  23.537  0.00  0.00    +0.243 C 
ATOM     17  O   GLY A   4      -1.308 -17.796  23.966  0.00  0.00    -0.273 OA
ATOM     18  N   GLU A   5      -0.023 -18.682  22.341  0.00  0.00    -0.297 N 
ATOM     19  H   GLU A   5       0.403 -19.556  21.973  0.00  0.00    +0.150 HD
BRANCH  16  20
ATOM     20  CA  GLY A   4      -0.354 -19.961  24.351  0.00  0.00    +0.176 C 
BRANCH  20  23
ATOM     21  C   ILE A   3      -1.362 -21.279  26.130  0.00  0.00    +0.241 C 
ATOM     22  O   ILE A   3      -0.666 -22.260  25.869  0.00  0.00    -0.273 OA
ATOM     23  N   GLY A   4      -1.266 -20.126  25.476  0.00  0.00    -0.295 N 
ATOM     24  H   GLY A   4      -1.855 -19.323  25.774  0.00  0.00    +0.150 HD
BRANCH  21  25
ATOM     25  CA  ILE A   3      -2.398 -21.342  27.247  0.00  0.00    +0.149 C 
BRANCH  25  28
ATOM     26  C   LYS A   2      -1.554 -20.233  29.242  0.00  0.00    +0.241 C 
ATOM     27  O   LYS A   2      -1.053 -21.271  29.678  0.00  0.00    -0.273 OA
ATOM     28  N   ILE A   3      -2.272 -20.184  28.126  0.00  0.00    -0.297 N 
ATOM     29  H   ILE A   3      -2.756 -19.299  27.872  0.00  0.00    +0.150 HD
BRANCH  26  30
ATOM     30  CA  LYS A   2      -1.380 -18.917  29.985  0.00  0.00    +0.149 C 
BRANCH  30  32
ATOM     31  C   GLU A   1      -2.770 -19.342  31.941  0.00  0.00    +0.238 C 
ATOM     32  N   LYS A   2      -1.565 -19.140  31.412  0.00  0.00    -0.297 N 
ATOM     33  H   LYS A   2      -0.733 -19.142  32.035  0.00  0.00    +0.150 HD
ATOM     34  O   GLU A   1      -3.816 -19.249  31.291  0.00  0.00    -0.274 OA
BRANCH  31  35
ATOM     35  CA  GLU A   1      -2.803 -19.716  33.422  0.00  0.00    +0.145 C 
BRANCH  35  36
ATOM     36  N   GLU A   1      -4.132 -19.477  33.993  0.00  0.00    -0.238 NA
ATOM     37  H   GLU A   1      -4.914 -19.251  33.346  0.00  0.00    +0.142 HD
ENDBRANCH  35  36
BRANCH  35  38
ATOM     38  CB  GLU A   1      -2.397 -21.188  33.584  0.00  0.00    +0.038 C 
BRANCH  38  39
ATOM     39  CG  GLU A   1      -3.302 -22.175  32.841  0.00  0.00    +0.116 C 
BRANCH  39  40
ATOM     40  CD  GLU A   1      -2.870 -23.623  32.993  0.00  0.00    +0.365 C 
ATOM     41  OE2 GLU A   1      -1.678 -23.875  33.290  0.00  0.00    -0.246 OA
ATOM     42  OE1 GLU A   1      -3.733 -24.512  32.810  0.00  0.00    -0.246 OA
ENDBRANCH  39  40
ENDBRANCH  38  39
ENDBRANCH  35  38
ENDBRANCH  31  35
ENDBRANCH  30  32
BRANCH  30  43
ATOM     43  CB  LYS A   2       0.003 -18.324  29.687  0.00  0.00    +0.029 C 
BRANCH  43  44
ATOM     44  CG  LYS A   2       0.285 -18.142  28.192  0.00  0.00    +0.000 C 
BRANCH  44  45
ATOM     45  CD  LYS A   2       1.691 -17.627  27.895  0.00  0.00    -0.024 C 
BRANCH  45  46
ATOM     46  CE  LYS A   2       1.740 -16.107  27.901  0.00  0.00    -0.086 C 
BRANCH  46  47
ATOM     47  NZ  LYS A   2       2.826 -15.564  27.031  0.00  0.00    +0.380 N 
ATOM     48  HZ1 LYS A   2       3.746 -15.915  27.367  0.00  0.00    -0.089 HD
ATOM     49  HZ2 LYS A   2       2.814 -14.525  27.072  0.00  0.00    -0.089 HD
ATOM     50  HZ3 LYS A   2       2.672 -15.875  26.051  0.00  0.00    -0.089 HD
ENDBRANCH  46  47
ENDBRANCH  45  46
ENDBRANCH  44  45
ENDBRANCH  43  44
ENDBRANCH  30  43
ENDBRANCH  26  30
ENDBRANCH  25  28
BRANCH  25  51
ATOM     51  CB  ILE A   3      -3.816 -21.469  26.645  0.00  0.00    +0.027 C 
ATOM     52  CG2 ILE A   3      -3.849 -22.563  25.585  0.00  0.00    +0.002 C 
BRANCH  51  53
ATOM     53  CG1 ILE A   3      -4.834 -21.770  27.743  0.00  0.00    +0.002 C 
ATOM     54  CD1 ILE A   3      -6.287 -21.642  27.296  0.00  0.00    +0.000 C 
ENDBRANCH  51  53
ENDBRANCH  25  51
ENDBRANCH  21  25
ENDBRANCH  20  23
ENDBRANCH  16  20
ENDBRANCH  15  18
BRANCH  15  55
ATOM     55  CB  GLU A   5       1.429 -16.865  21.655  0.00  0.00    +0.041 C 
BRANCH  55  56
ATOM     56  CG  GLU A   5       1.471 -15.358  21.627  0.00  0.00    +0.116 C 
BRANCH  56  57
ATOM     57  CD  GLU A   5       2.787 -14.822  22.140  0.00  0.00    +0.365 C 
ATOM     58  OE2 GLU A   5       3.019 -14.874  23.370  0.00  0.00    -0.246 OA
ATOM     59  OE1 GLU A   5       3.600 -14.367  21.309  0.00  0.00    -0.246 OA
ENDBRANCH  56  57
ENDBRANCH  55  56
ENDBRANCH  15  55
ENDBRANCH  11  15
ENDBRANCH  10  12
ENDBRANCH   6  10
ENDBRANCH   5   8
BRANCH   5  60
ATOM     60  CB  THR A   7      -3.069 -15.433  14.092  0.00  0.00    +0.137 C 
ATOM     61  CG2 THR A   7      -2.821 -14.383  13.011  0.00  0.00    +0.034 C 
BRANCH  60  62
ATOM     62  OG1 THR A   7      -3.238 -16.712  13.476  0.00  0.00    -0.382 OA
ATOM     63  HG1 THR A   7      -3.428 -17.390  14.172  0.00  0.00    +0.210 HD
ENDBRANCH  60  62
ENDBRANCH   5  60
ENDBRANCH   1   5
BRANCH   2  64
ATOM     64  CA  TYR A   8      -1.975 -12.511  17.398  0.00  0.00    +0.153 C 
BRANCH  64  65
ATOM     65  C   TYR A   8      -2.723 -12.508  18.720  0.00  0.00    +0.241 C 
ATOM     66  N   GLY A   9      -2.167 -11.783  19.679  0.00  0.00    -0.295 N 
ATOM     67  H   GLY A   9      -1.335 -11.204  19.448  0.00  0.00    +0.150 HD
ATOM     68  O   TYR A   8      -3.762 -13.157  18.868  0.00  0.00    -0.273 OA
BRANCH  66  69
ATOM     69  CA  GLY A   9      -2.673 -11.765  21.040  0.00  0.00    +0.176 C 
BRANCH  69  70
ATOM     70  C   GLY A   9      -2.232 -12.958  21.861  0.00  0.00    +0.243 C 
ATOM     71  N   VAL A  10      -2.643 -12.957  23.125  0.00  0.00    -0.297 N 
ATOM     72  H   VAL A  10      -3.236 -12.170  23.457  0.00  0.00    +0.150 HD
ATOM     73  O   GLY A   9      -1.533 -13.853  21.371  0.00  0.00    -0.273 OA
BRANCH  71  74
ATOM     74  CA  VAL A  10      -2.295 -14.015  24.062  0.00  0.00    +0.149 C 
BRANCH  74  75
ATOM     75  C   VAL A  10      -3.581 -14.652  24.580  0.00  0.00    +0.241 C 
ATOM     76  O   VAL A  10      -4.552 -13.954  24.883  0.00  0.00    -0.273 OA
ATOM     77  N   VAL A  11      -3.588 -15.977  24.666  0.00  0.00    -0.297 N 
ATOM     78  H   VAL A  11      -2.756 -16.514  24.349  0.00  0.00    +0.150 HD
BRANCH  77  79
ATOM     79  CA  VAL A  11      -4.742 -16.692  25.197  0.00  0.00    +0.149 C 
BRANCH  79  80
ATOM     80  C   VAL A  11      -4.468 -17.177  26.621  0.00  0.00    +0.241 C 
ATOM     81  N   TYR A  12      -5.419 -16.913  27.515  0.00  0.00    -0.297 N 
ATOM     82  H   TYR A  12      -6.242 -16.355  27.211  0.00  0.00    +0.150 HD
ATOM     83  O   VAL A  11      -3.418 -17.755  26.897  0.00  0.00    -0.273 OA
BRANCH  81  84
ATOM     84  CA  TYR A  12      -5.363 -17.368  28.901  0.00  0.00    +0.153 C 
BRANCH  84  85
ATOM     85  C   TYR A  12      -6.558 -18.247  29.225  0.00  0.00    +0.241 C 
ATOM     86  N   LYS A  13      -6.340 -19.272  30.038  0.00  0.00    -0.298 N 
ATOM     87  H   LYS A  13      -5.364 -19.589  30.209  0.00  0.00    +0.150 HD
ATOM     88  O   TYR A  12      -7.660 -17.991  28.756  0.00  0.00    -0.273 OA
BRANCH  86  89
ATOM     89  CA  LYS A  13      -7.441 -19.963  30.697  0.00  0.00    +0.137 C 
BRANCH  89  90
ATOM     90  C   LYS A  13      -7.938 -19.061  31.827  0.00  0.00    +0.227 C 
ATOM     91  O   LYS A  13      -7.142 -18.494  32.566  0.00  0.00    -0.286 OA
ENDBRANCH  89  90
BRANCH  89  92
ATOM     92  CB  LYS A  13      -6.985 -21.311  31.257  0.00  0.00    +0.028 C 
BRANCH  92  93
ATOM     93  CG  LYS A  13      -8.073 -22.087  31.991  0.00  0.00    -0.000 C 
BRANCH  93  94
ATOM     94  CD  LYS A  13      -7.557 -23.434  32.469  0.00  0.00    -0.024 C 
BRANCH  94  95
ATOM     95  CE  LYS A  13      -8.637 -24.207  33.207  0.00  0.00    -0.086 C 
BRANCH  95  96
ATOM     96  NZ  LYS A  13      -8.125 -25.512  33.714  0.00  0.00    +0.380 N 
ATOM     97  HZ1 LYS A  13      -7.335 -25.342  34.369  0.00  0.00    -0.089 HD
ATOM     98  HZ2 LYS A  13      -8.888 -26.013  34.212  0.00  0.00    -0.089 HD
ATOM     99  HZ3 LYS A  13      -7.796 -26.088  32.913  0.00  0.00    -0.089 HD
ENDBRANCH  95  96
ENDBRANCH  94  95
ENDBRANCH  93  94
ENDBRANCH  92  93
ENDBRANCH  89  92
ENDBRANCH  86  89
ENDBRANCH  84  85
BRANCH  84 100
ATOM    100  CB  TYR A  12      -5.389 -16.177  29.864  0.00  0.00    +0.055 C 
BRANCH 100 101
ATOM    101  CG  TYR A  12      -4.192 -15.266  29.792  0.00  0.00    -0.020 A 
ATOM    102  CD2 TYR A  12      -3.066 -15.498  30.582  0.00  0.00    -0.001 A 
ATOM    103  CE2 TYR A  12      -1.960 -14.648  30.524  0.00  0.00    +0.036 A 
ATOM    104  CZ  TYR A  12      -1.982 -13.555  29.671  0.00  0.00    +0.134 A 
ATOM    105  CE1 TYR A  12      -3.093 -13.300  28.885  0.00  0.00    +0.036 A 
ATOM    106  CD1 TYR A  12      -4.192 -14.153  28.952  0.00  0.00    -0.001 A 
BRANCH 104 107
ATOM    107  OH  TYR A  12      -0.902 -12.707  29.604  0.00  0.00    -0.506 OA
ATOM    108  HH  TYR A  12      -1.089 -11.988  28.950  0.00  0.00    +0.292 HD
ENDBRANCH 104 107
ENDBRANCH 100 101
ENDBRANCH  84 100
ENDBRANCH  81  84
ENDBRANCH  79  80
BRANCH  79 109
ATOM    109  CB  VAL A  11      -5.164 -17.867  24.289  0.00  0.00    +0.027 C 
ATOM    110  CG2 VAL A  11      -6.435 -18.529  24.818  0.00  0.00    +0.002 C 
ATOM    111  CG1 VAL A  11      -5.378 -17.387  22.852  0.00  0.00    +0.002 C 
ENDBRANCH  79 109
ENDBRANCH  77  79
ENDBRANCH  74  75
BRANCH  74 112
ATOM    112  CB  VAL A  10      -1.463 -13.481  25.256  0.00  0.00    +0.027 C 
ATOM    113  CG2 VAL A  10      -0.812 -14.629  26.008  0.00  0.00    +0.002 C 
ATOM    114  CG1 VAL A  10      -0.396 -12.502  24.785  0.00  0.00    +0.002 C 
ENDBRANCH  74 112
ENDBRANCH  71  74
ENDBRANCH  69  70
ENDBRANCH  66  69
ENDBRANCH  64  65
BRANCH  64 115
ATOM    115  CB  TYR A   8      -2.126 -11.172  16.664  0.00  0.00    +0.055 C 
BRANCH 115 116
ATOM    116  CG  TYR A   8      -0.938 -10.246  16.886  0.00  0.00    -0.020 A 
ATOM    117  CD2 TYR A   8      -0.798  -9.529  18.070  0.00  0.00    -0.001 A 
ATOM    118  CE2 TYR A   8       0.286  -8.694  18.279  0.00  0.00    +0.036 A 
ATOM    119  CZ  TYR A   8       1.251  -8.567  17.299  0.00  0.00    +0.134 A 
ATOM    120  CE1 TYR A   8       1.140  -9.270  16.117  0.00  0.00    +0.036 A 
ATOM    121  CD1 TYR A   8       0.052 -10.108  15.918  0.00  0.00    -0.001 A 
BRANCH 119 122
ATOM    122  OH  TYR A   8       2.330  -7.735  17.505  0.00  0.00    -0.506 OA
ATOM    123  HH  TYR A   8       2.921  -7.760  16.711  0.00  0.00    +0.292 HD
ENDBRANCH 119 122
ENDBRANCH 115 116
ENDBRANCH  64 115
ENDBRANCH   2  64
TORSDOF 54
REMARK  Name = ../refined-set-2016/4eor/4eor_pocket.pdb
REMARK  229 active torsions:
REMARK  status: ('A' for Active; 'I' for Inactive)
REMARK    1  A    between atoms: _1  and  _3
REMARK    2  A    between atoms: _3  and  _4
REMARK    3  A    between atoms: _3  and  _6
REMARK    4  A    between atoms: _6  and  _7
REMARK    5  A    between atoms: _7  and  _8
REMARK    6  A    between atoms: _11  and  _13
REMARK    7  A    between atoms: _13  and  _14
REMARK    8  A    between atoms: _13  and  _16
REMARK    9  A    between atoms: _16  and  _17
REMARK   10  A    between atoms: _17  and  _18
REMARK   11  A    between atoms: _18  and  _19
REMARK   12  A    between atoms: _19  and  _20
REMARK   13  A    between atoms: _24  and  _26
REMARK   14  A    between atoms: _26  and  _27
REMARK   15  A    between atoms: _26  and  _29
REMARK   16  A    between atoms: _29  and  _30
REMARK   17  A    between atoms: _33  and  _35
REMARK   18  A    between atoms: _35  and  _36
REMARK   19  A    between atoms: _38  and  _40
REMARK   20  A    between atoms: _40  and  _41
REMARK   21  A    between atoms: _40  and  _43
REMARK   22  A    between atoms: _43  and  _44
REMARK   23  A    between atoms: _44  and  _45
REMARK   24  A    between atoms: _48  and  _50
REMARK   25  A    between atoms: _50  and  _51
REMARK   26  A    between atoms: _53  and  _55
REMARK   27  A    between atoms: _55  and  _56
REMARK   28  A    between atoms: _55  and  _58
REMARK   29  A    between atoms: _58  and  _59
REMARK   30  A    between atoms: _62  and  _64
REMARK   31  A    between atoms: _64  and  _65
REMARK   32  A    between atoms: _64  and  _67
REMARK   33  A    between atoms: _67  and  _68
REMARK   34  A    between atoms: _73  and  _74
REMARK   35  A    between atoms: _76  and  _78
REMARK   36  A    between atoms: _78  and  _79
REMARK   37  A    between atoms: _81  and  _83
REMARK   38  A    between atoms: _83  and  _84
REMARK   39  A    between atoms: _83  and  _86
REMARK   40  A    between atoms: _89  and  _91
REMARK   41  A    between atoms: _91  and  _92
REMARK   42  A    between atoms: _91  and  _94
REMARK   43  A    between atoms: _97  and  _99
REMARK   44  A    between atoms: _99  and  _100
REMARK   45  A    between atoms: _99  and  _102
REMARK   46  A    between atoms: _102  and  _103
REMARK   47  A    between atoms: _108  and  _109
REMARK   48  A    between atoms: _111  and  _113
REMARK   49  A    between atoms: _113  and  _114
REMARK   50  A    between atoms: _113  and  _116
REMARK   51  A    between atoms: _116  and  _117
REMARK   52  A    between atoms: _117  and  _118
REMARK   53  A    between atoms: _118  and  _119
REMARK   54  A    between atoms: _119  and  _120
REMARK   55  A    between atoms: _124  and  _126
REMARK   56  A    between atoms: _126  and  _127
REMARK   57  A    between atoms: _126  and  _129
REMARK   58  A    between atoms: _132  and  _134
REMARK   59  A    between atoms: _134  and  _135
REMARK   60  A    between atoms: _134  and  _137
REMARK   61  A    between atoms: _140  and  _142
REMARK   62  A    between atoms: _142  and  _143
REMARK   63  A    between atoms: _146  and  _148
REMARK   64  A    between atoms: _148  and  _149
REMARK   65  A    between atoms: _148  and  _151
REMARK   66  A    between atoms: _151  and  _152
REMARK   67  A    between atoms: _155  and  _157
REMARK   68  A    between atoms: _157  and  _158
REMARK   69  A    between atoms: _157  and  _160
REMARK   70  A    between atoms: _160  and  _161
REMARK   71  A    between atoms: _161  and  _162
REMARK   72  A    between atoms: _162  and  _163
REMARK   73  A    between atoms: _163  and  _164
REMARK   74  A    between atoms: _168  and  _170
REMARK   75  A    between atoms: _170  and  _171
REMARK   76  A    between atoms: _170  and  _173
REMARK   77  A    between atoms: _173  and  _174
REMARK   78  A    between atoms: _174  and  _175
REMARK   79  A    between atoms: _178  and  _180
REMARK   80  A    between atoms: _180  and  _181
REMARK   81  A    between atoms: _180  and  _183
REMARK   82  A    between atoms: _183  and  _184
REMARK   83  A    between atoms: _187  and  _189
REMARK   84  A    between atoms: _189  and  _190
REMARK   85  A    between atoms: _189  and  _192
REMARK   86  A    between atoms: _195  and  _197
REMARK   87  A    between atoms: _197  and  _198
REMARK   88  A    between atoms: _197  and  _200
REMARK   89  A    between atoms: _200  and  _201
REMARK   90  A    between atoms: _201  and  _202
REMARK   91  A    between atoms: _202  and  _203
REMARK   92  A    between atoms: _203  and  _204
REMARK   93  A    between atoms: _208  and  _210
REMARK   94  A    between atoms: _210  and  _211
REMARK   95  A    between atoms: _210  and  _213
REMARK   96  A    between atoms: _213  and  _214
REMARK   97  A    between atoms: _217  and  _219
REMARK   98  A    between atoms: _219  and  _220
REMARK   99  A    between atoms: _219  and  _222
REMARK  100  A    between atoms: _222  and  _223
REMARK  101  A    between atoms: _226  and  _228
REMARK  102  A    between atoms: _228  and  _229
REMARK  103  A    between atoms: _228  and  _231
REMARK  104  A    between atoms: _231  and  _232
REMARK  105  A    between atoms: _235  and  _237
REMARK  106  A    between atoms: _237  and  _238
REMARK  107  A    between atoms: _237  and  _240
REMARK  108  A    between atoms: _243  and  _245
REMARK  109  A    between atoms: _245  and  _246
REMARK  110  A    between atoms: _245  and  _248
REMARK  111  A    between atoms: _248  and  _249
REMARK  112  A    between atoms: _255  and  _257
REMARK  113  A    between atoms: _257  and  _258
REMARK  114  A    between atoms: _257  and  _260
REMARK  115  A    between atoms: _260  and  _261
REMARK  116  A    between atoms: _261  and  _262
REMARK  117  A    between atoms: _265  and  _267
REMARK  118  A    between atoms: _267  and  _268
REMARK  119  A    between atoms: _267  and  _270
REMARK  120  A    between atoms: _270  and  _271
REMARK  121  A    between atoms: _277  and  _279
REMARK  122  A    between atoms: _279  and  _280
REMARK  123  A    between atoms: _279  and  _282
REMARK  124  A    between atoms: _282  and  _283
REMARK  125  A    between atoms: _286  and  _288
REMARK  126  A    between atoms: _288  and  _289
REMARK  127  A    between atoms: _288  and  _291
REMARK  128  A    between atoms: _291  and  _292
REMARK  129  A    between atoms: _297  and  _299
REMARK  130  A    between atoms: _299  and  _300
REMARK  131  A    between atoms: _299  and  _302
REMARK  132  A    between atoms: _302  and  _303
REMARK  133  A    between atoms: _303  and  _304
REMARK  134  A    between atoms: _309  and  _311
REMARK  135  A    between atoms: _311  and  _312
REMARK  136  A    between atoms: _311  and  _314
REMARK  137  A    between atoms: _314  and  _315
REMARK  138  A    between atoms: _318  and  _320
REMARK  139  A    between atoms: _320  and  _321
REMARK  140  A    between atoms: _320  and  _323
REMARK  141  A    between atoms: _323  and  _324
REMARK  142  A    between atoms: _327  and  _329
REMARK  143  A    between atoms: _329  and  _330
REMARK  144  A    between atoms: _329  and  _332
REMARK  145  A    between atoms: _332  and  _333
REMARK  146  A    between atoms: _333  and  _334
REMARK  147  A    between atoms: _334  and  _335
REMARK  148  A    between atoms: _335  and  _336
REMARK  149  A    between atoms: _340  and  _342
REMARK  150  A    between atoms: _342  and  _343
REMARK  151  A    between atoms: _342  and  _345
REMARK  152  A    between atoms: _345  and  _346
REMARK  153  A    between atoms: _346  and  _347
REMARK  154  A    between atoms: _347  and  _348
REMARK  155  A    between atoms: _348  and  _349
REMARK  156  A    between atoms: _353  and  _355
REMARK  157  A    between atoms: _355  and  _356
REMARK  158  A    between atoms: _355  and  _358
REMARK  159  A    between atoms: _358  and  _359
REMARK  160  A    between atoms: _365  and  _367
REMARK  161  A    between atoms: _367  and  _368
REMARK  162  A    between atoms: _367  and  _370
REMARK  163  A    between atoms: _370  and  _371
REMARK  164  A    between atoms: _376  and  _378
REMARK  165  A    between atoms: _378  and  _379
REMARK  166  A    between atoms: _378  and  _381
REMARK  167  A    between atoms: _381  and  _382
REMARK  168  A    between atoms: _385  and  _387
REMARK  169  A    between atoms: _387  and  _388
REMARK  170  A    between atoms: _387  and  _390
REMARK  171  A    between atoms: _390  and  _391
REMARK  172  A    between atoms: _391  and  _392
REMARK  173  A    between atoms: _392  and  _393
REMARK  174  A    between atoms: _393  and  _394
REMARK  175  A    between atoms: _399  and  _400
REMARK  176  A    between atoms: _405  and  _407
REMARK  177  A    between atoms: _407  and  _408
REMARK  178  A    between atoms: _407  and  _410
REMARK  179  A    between atoms: _410  and  _411
REMARK  180  A    between atoms: _411  and  _412
REMARK  181  A    between atoms: _417  and  _419
REMARK  182  A    between atoms: _419  and  _420
REMARK  183  A    between atoms: _419  and  _422
REMARK  184  A    between atoms: _422  and  _423
REMARK  185  A    between atoms: _428  and  _430
REMARK  186  A    between atoms: _430  and  _431
REMARK  187  A    between atoms: _430  and  _433
REMARK  188  A    between atoms: _433  and  _434
REMARK  189  A    between atoms: _437  and  _439
REMARK  190  A    between atoms: _439  and  _440
REMARK  191  A    between atoms: _439  and  _442
REMARK  192  A    between atoms: _442  and  _443
REMARK  193  A    between atoms: _446  and  _448
REMARK  194  A    between atoms: _448  and  _449
REMARK  195  A    between atoms: _448  and  _451
REMARK  196  A    between atoms: _451  and  _452
REMARK  197  A    between atoms: _455  and  _457
REMARK  198  A    between atoms: _457  and  _458
REMARK  199  A    between atoms: _457  and  _460
REMARK  200  A    between atoms: _460  and  _461
REMARK  201  A    between atoms: _466  and  _468
REMARK  202  A    between atoms: _468  and  _469
REMARK  203  A    between atoms: _468  and  _471
REMARK  204  A    between atoms: _471  and  _472
REMARK  205  A    between atoms: _472  and  _473
REMARK  206  A    between atoms: _473  and  _474
REMARK  207  A    between atoms: _474  and  _475
REMARK  208  A    between atoms: _479  and  _481
REMARK  209  A    between atoms: _481  and  _482
REMARK  210  A    between atoms: _481  and  _484
REMARK  211  A    between atoms: _484  and  _485
REMARK  212  A    between atoms: _488  and  _490
REMARK  213  A    between atoms: _490  and  _491
REMARK  214  A    between atoms: _494  and  _496
REMARK  215  A    between atoms: _496  and  _497
REMARK  216  A    between atoms: _496  and  _499
REMARK  217  A    between atoms: _499  and  _500
REMARK  218  A    between atoms: _503  and  _505
REMARK  219  A    between atoms: _505  and  _506
REMARK  220  A    between atoms: _505  and  _508
REMARK  221  A    between atoms: _508  and  _509
REMARK  222  A    between atoms: _515  and  _517
REMARK  223  A    between atoms: _517  and  _518
REMARK  224  A    between atoms: _520  and  _522
REMARK  225  A    between atoms: _522  and  _523
REMARK  226  A    between atoms: _522  and  _525
REMARK  227  A    between atoms: _525  and  _526
REMARK  228  A    between atoms: _526  and  _527
REMARK  229  A    between atoms: _527  and  _528
REMARK                            x       y       z     vdW  Elec       q    Type
REMARK                         _______ _______ _______ _____ _____    ______ ____
ROOT
ATOM      1  C   ALA A   3     -10.518 -17.422  26.802  0.00  0.00    +0.241 C 
ATOM      2  N   LEU A   4      -9.532 -16.659  27.269  0.00  0.00    -0.297 N 
ATOM      3  H   LEU A   4      -8.774 -17.105  27.824  0.00  0.00    +0.150 HD
ATOM      4  O   ALA A   3     -11.468 -16.971  26.155  0.00  0.00    -0.273 OA
ENDROOT
BRANCH   1   5
ATOM      5  CA  ALA A   3     -10.442 -18.915  27.129  0.00  0.00    +0.149 C 
ATOM      6  CB  ALA A   3     -10.069 -19.721  25.896  0.00  0.00    +0.031 C 
BRANCH   5   9
ATOM      7  C   VAL A   2     -11.930 -19.589  28.945  0.00  0.00    +0.241 C 
ATOM      8  O   VAL A   2     -11.014 -19.709  29.759  0.00  0.00    -0.273 OA
ATOM      9  N   ALA A   3     -11.732 -19.352  27.649  0.00  0.00    -0.297 N 
ATOM     10  H   ALA A   3     -12.523 -19.483  26.987  0.00  0.00    +0.150 HD
BRANCH   7  11
ATOM     11  CA  VAL A   2     -13.383 -19.733  29.390  0.00  0.00    +0.148 C 
BRANCH  11  13
ATOM     12  C   VAL A   1     -14.299 -21.355  30.975  0.00  0.00    +0.238 C 
ATOM     13  N   VAL A   2     -13.456 -20.361  30.707  0.00  0.00    -0.297 N 
ATOM     14  H   VAL A   2     -12.827 -20.019  31.461  0.00  0.00    +0.150 HD
ATOM     15  O   VAL A   1     -15.038 -21.861  30.128  0.00  0.00    -0.274 OA
BRANCH  12  16
ATOM     16  CA  VAL A   1     -14.331 -21.832  32.426  0.00  0.00    +0.145 C 
BRANCH  16  17
ATOM     17  CB  VAL A   1     -13.616 -23.196  32.565  0.00  0.00    +0.025 C 
ATOM     18  CG2 VAL A   1     -13.764 -23.730  33.985  0.00  0.00    +0.002 C 
ATOM     19  CG1 VAL A   1     -12.135 -23.078  32.195  0.00  0.00    +0.002 C 
ENDBRANCH  16  17
BRANCH  16  20
ATOM     20  N   VAL A   1     -15.723 -21.914  32.833  0.00  0.00    -0.238 NA
ATOM     21  H   VAL A   1     -16.202 -22.836  32.794  0.00  0.00    +0.142 HD
ENDBRANCH  16  20
ENDBRANCH  12  16
ENDBRANCH  11  13
BRANCH  11  22
ATOM     22  CB  VAL A   2     -14.061 -18.328  29.382  0.00  0.00    +0.027 C 
ATOM     23  CG2 VAL A   2     -13.391 -17.388  30.390  0.00  0.00    +0.002 C 
ATOM     24  CG1 VAL A   2     -15.557 -18.433  29.658  0.00  0.00    +0.002 C 
ENDBRANCH  11  22
ENDBRANCH   7  11
ENDBRANCH   5   9
ENDBRANCH   1   5
BRANCH   2  25
ATOM     25  CA  LEU A   4      -9.474 -15.215  27.030  0.00  0.00    +0.149 C 
BRANCH  25  26
ATOM     26  C   LEU A   4      -8.361 -14.851  26.061  0.00  0.00    +0.241 C 
ATOM     27  O   LEU A   4      -7.185 -15.059  26.358  0.00  0.00    -0.273 OA
ATOM     28  N   LYS A   5      -8.741 -14.305  24.908  0.00  0.00    -0.298 N 
ATOM     29  H   LYS A   5      -9.756 -14.259  24.686  0.00  0.00    +0.150 HD
BRANCH  28  30
ATOM     30  CA  LYS A   5      -7.789 -13.770  23.946  0.00  0.00    +0.137 C 
BRANCH  30  31
ATOM     31  C   LYS A   5      -7.578 -12.282  24.236  0.00  0.00    +0.227 C 
ATOM     32  O   LYS A   5      -8.502 -11.479  24.099  0.00  0.00    -0.286 OA
ENDBRANCH  30  31
BRANCH  30  33
ATOM     33  CB  LYS A   5      -8.294 -13.994  22.515  0.00  0.00    +0.028 C 
BRANCH  33  34
ATOM     34  CG  LYS A   5      -7.209 -14.047  21.446  0.00  0.00    -0.000 C 
BRANCH  34  35
ATOM     35  CD  LYS A   5      -7.549 -15.095  20.379  0.00  0.00    -0.024 C 
BRANCH  35  36
ATOM     36  CE  LYS A   5      -6.391 -15.328  19.408  0.00  0.00    -0.086 C 
BRANCH  36  37
ATOM     37  NZ  LYS A   5      -6.235 -16.778  19.009  0.00  0.00    +0.380 N 
ATOM     38  HZ1 LYS A   5      -6.056 -17.352  19.857  0.00  0.00    -0.089 HD
ATOM     39  HZ2 LYS A   5      -7.107 -17.104  18.545  0.00  0.00    -0.089 HD
ATOM     40  HZ3 LYS A   5      -5.435 -16.871  18.351  0.00  0.00    -0.089 HD
ENDBRANCH  36  37
ENDBRANCH  35  36
ENDBRANCH  34  35
ENDBRANCH  33  34
ENDBRANCH  30  33
ENDBRANCH  28  30
ENDBRANCH  25  26
BRANCH  25  41
ATOM     41  CB  LEU A   4      -9.267 -14.440  28.337  0.00  0.00    +0.029 C 
BRANCH  41  42
ATOM     42  CG  LEU A   4     -10.361 -14.421  29.408  0.00  0.00    +0.002 C 
ATOM     43  CD2 LEU A   4      -9.929 -13.558  30.594  0.00  0.00    +0.000 C 
ATOM     44  CD1 LEU A   4     -11.700 -13.934  28.854  0.00  0.00    +0.000 C 
ENDBRANCH  41  42
ENDBRANCH  25  41
ENDBRANCH   2  25
TORSDOF 19
REMARK  Name = ../refined-set-2016/4eor/4eor_pocket.pdb
REMARK  229 active torsions:
REMARK  status: ('A' for Active; 'I' for Inactive)
REMARK    1  A    between atoms: _1  and  _3
REMARK    2  A    between atoms: _3  and  _4
REMARK    3  A    between atoms: _3  and  _6
REMARK    4  A    between atoms: _6  and  _7
REMARK    5  A    between atoms: _7  and  _8
REMARK    6  A    between atoms: _11  and  _13
REMARK    7  A    between atoms: _13  and  _14
REMARK    8  A    between atoms: _13  and  _16
REMARK    9  A    between atoms: _16  and  _17
REMARK   10  A    between atoms: _17  and  _18
REMARK   11  A    between atoms: _18  and  _19
REMARK   12  A    between atoms: _19  and  _20
REMARK   13  A    between atoms: _24  and  _26
REMARK   14  A    between atoms: _26  and  _27
REMARK   15  A    between atoms: _26  and  _29
REMARK   16  A    between atoms: _29  and  _30
REMARK   17  A    between atoms: _33  and  _35
REMARK   18  A    between atoms: _35  and  _36
REMARK   19  A    between atoms: _38  and  _40
REMARK   20  A    between atoms: _40  and  _41
REMARK   21  A    between atoms: _40  and  _43
REMARK   22  A    between atoms: _43  and  _44
REMARK   23  A    between atoms: _44  and  _45
REMARK   24  A    between atoms: _48  and  _50
REMARK   25  A    between atoms: _50  and  _51
REMARK   26  A    between atoms: _53  and  _55
REMARK   27  A    between atoms: _55  and  _56
REMARK   28  A    between atoms: _55  and  _58
REMARK   29  A    between atoms: _58  and  _59
REMARK   30  A    between atoms: _62  and  _64
REMARK   31  A    between atoms: _64  and  _65
REMARK   32  A    between atoms: _64  and  _67
REMARK   33  A    between atoms: _67  and  _68
REMARK   34  A    between atoms: _73  and  _74
REMARK   35  A    between atoms: _76  and  _78
REMARK   36  A    between atoms: _78  and  _79
REMARK   37  A    between atoms: _81  and  _83
REMARK   38  A    between atoms: _83  and  _84
REMARK   39  A    between atoms: _83  and  _86
REMARK   40  A    between atoms: _89  and  _91
REMARK   41  A    between atoms: _91  and  _92
REMARK   42  A    between atoms: _91  and  _94
REMARK   43  A    between atoms: _97  and  _99
REMARK   44  A    between atoms: _99  and  _100
REMARK   45  A    between atoms: _99  and  _102
REMARK   46  A    between atoms: _102  and  _103
REMARK   47  A    between atoms: _108  and  _109
REMARK   48  A    between atoms: _111  and  _113
REMARK   49  A    between atoms: _113  and  _114
REMARK   50  A    between atoms: _113  and  _116
REMARK   51  A    between atoms: _116  and  _117
REMARK   52  A    between atoms: _117  and  _118
REMARK   53  A    between atoms: _118  and  _119
REMARK   54  A    between atoms: _119  and  _120
REMARK   55  A    between atoms: _124  and  _126
REMARK   56  A    between atoms: _126  and  _127
REMARK   57  A    between atoms: _126  and  _129
REMARK   58  A    between atoms: _132  and  _134
REMARK   59  A    between atoms: _134  and  _135
REMARK   60  A    between atoms: _134  and  _137
REMARK   61  A    between atoms: _140  and  _142
REMARK   62  A    between atoms: _142  and  _143
REMARK   63  A    between atoms: _146  and  _148
REMARK   64  A    between atoms: _148  and  _149
REMARK   65  A    between atoms: _148  and  _151
REMARK   66  A    between atoms: _151  and  _152
REMARK   67  A    between atoms: _155  and  _157
REMARK   68  A    between atoms: _157  and  _158
REMARK   69  A    between atoms: _157  and  _160
REMARK   70  A    between atoms: _160  and  _161
REMARK   71  A    between atoms: _161  and  _162
REMARK   72  A    between atoms: _162  and  _163
REMARK   73  A    between atoms: _163  and  _164
REMARK   74  A    between atoms: _168  and  _170
REMARK   75  A    between atoms: _170  and  _171
REMARK   76  A    between atoms: _170  and  _173
REMARK   77  A    between atoms: _173  and  _174
REMARK   78  A    between atoms: _174  and  _175
REMARK   79  A    between atoms: _178  and  _180
REMARK   80  A    between atoms: _180  and  _181
REMARK   81  A    between atoms: _180  and  _183
REMARK   82  A    between atoms: _183  and  _184
REMARK   83  A    between atoms: _187  and  _189
REMARK   84  A    between atoms: _189  and  _190
REMARK   85  A    between atoms: _189  and  _192
REMARK   86  A    between atoms: _195  and  _197
REMARK   87  A    between atoms: _197  and  _198
REMARK   88  A    between atoms: _197  and  _200
REMARK   89  A    between atoms: _200  and  _201
REMARK   90  A    between atoms: _201  and  _202
REMARK   91  A    between atoms: _202  and  _203
REMARK   92  A    between atoms: _203  and  _204
REMARK   93  A    between atoms: _208  and  _210
REMARK   94  A    between atoms: _210  and  _211
REMARK   95  A    between atoms: _210  and  _213
REMARK   96  A    between atoms: _213  and  _214
REMARK   97  A    between atoms: _217  and  _219
REMARK   98  A    between atoms: _219  and  _220
REMARK   99  A    between atoms: _219  and  _222
REMARK  100  A    between atoms: _222  and  _223
REMARK  101  A    between atoms: _226  and  _228
REMARK  102  A    between atoms: _228  and  _229
REMARK  103  A    between atoms: _228  and  _231
REMARK  104  A    between atoms: _231  and  _232
REMARK  105  A    between atoms: _235  and  _237
REMARK  106  A    between atoms: _237  and  _238
REMARK  107  A    between atoms: _237  and  _240
REMARK  108  A    between atoms: _243  and  _245
REMARK  109  A    between atoms: _245  and  _246
REMARK  110  A    between atoms: _245  and  _248
REMARK  111  A    between atoms: _248  and  _249
REMARK  112  A    between atoms: _255  and  _257
REMARK  113  A    between atoms: _257  and  _258
REMARK  114  A    between atoms: _257  and  _260
REMARK  115  A    between atoms: _260  and  _261
REMARK  116  A    between atoms: _261  and  _262
REMARK  117  A    between atoms: _265  and  _267
REMARK  118  A    between atoms: _267  and  _268
REMARK  119  A    between atoms: _267  and  _270
REMARK  120  A    between atoms: _270  and  _271
REMARK  121  A    between atoms: _277  and  _279
REMARK  122  A    between atoms: _279  and  _280
REMARK  123  A    between atoms: _279  and  _282
REMARK  124  A    between atoms: _282  and  _283
REMARK  125  A    between atoms: _286  and  _288
REMARK  126  A    between atoms: _288  and  _289
REMARK  127  A    between atoms: _288  and  _291
REMARK  128  A    between atoms: _291  and  _292
REMARK  129  A    between atoms: _297  and  _299
REMARK  130  A    between atoms: _299  and  _300
REMARK  131  A    between atoms: _299  and  _302
REMARK  132  A    between atoms: _302  and  _303
REMARK  133  A    between atoms: _303  and  _304
REMARK  134  A    between atoms: _309  and  _311
REMARK  135  A    between atoms: _311  and  _312
REMARK  136  A    between atoms: _311  and  _314
REMARK  137  A    between atoms: _314  and  _315
REMARK  138  A    between atoms: _318  and  _320
REMARK  139  A    between atoms: _320  and  _321
REMARK  140  A    between atoms: _320  and  _323
REMARK  141  A    between atoms: _323  and  _324
REMARK  142  A    between atoms: _327  and  _329
REMARK  143  A    between atoms: _329  and  _330
REMARK  144  A    between atoms: _329  and  _332
REMARK  145  A    between atoms: _332  and  _333
REMARK  146  A    between atoms: _333  and  _334
REMARK  147  A    between atoms: _334  and  _335
REMARK  148  A    between atoms: _335  and  _336
REMARK  149  A    between atoms: _340  and  _342
REMARK  150  A    between atoms: _342  and  _343
REMARK  151  A    between atoms: _342  and  _345
REMARK  152  A    between atoms: _345  and  _346
REMARK  153  A    between atoms: _346  and  _347
REMARK  154  A    between atoms: _347  and  _348
REMARK  155  A    between atoms: _348  and  _349
REMARK  156  A    between atoms: _353  and  _355
REMARK  157  A    between atoms: _355  and  _356
REMARK  158  A    between atoms: _355  and  _358
REMARK  159  A    between atoms: _358  and  _359
REMARK  160  A    between atoms: _365  and  _367
REMARK  161  A    between atoms: _367  and  _368
REMARK  162  A    between atoms: _367  and  _370
REMARK  163  A    between atoms: _370  and  _371
REMARK  164  A    between atoms: _376  and  _378
REMARK  165  A    between atoms: _378  and  _379
REMARK  166  A    between atoms: _378  and  _381
REMARK  167  A    between atoms: _381  and  _382
REMARK  168  A    between atoms: _385  and  _387
REMARK  169  A    between atoms: _387  and  _388
REMARK  170  A    between atoms: _387  and  _390
REMARK  171  A    between atoms: _390  and  _391
REMARK  172  A    between atoms: _391  and  _392
REMARK  173  A    between atoms: _392  and  _393
REMARK  174  A    between atoms: _393  and  _394
REMARK  175  A    between atoms: _399  and  _400
REMARK  176  A    between atoms: _405  and  _407
REMARK  177  A    between atoms: _407  and  _408
REMARK  178  A    between atoms: _407  and  _410
REMARK  179  A    between atoms: _410  and  _411
REMARK  180  A    between atoms: _411  and  _412
REMARK  181  A    between atoms: _417  and  _419
REMARK  182  A    between atoms: _419  and  _420
REMARK  183  A    between atoms: _419  and  _422
REMARK  184  A    between atoms: _422  and  _423
REMARK  185  A    between atoms: _428  and  _430
REMARK  186  A    between atoms: _430  and  _431
REMARK  187  A    between atoms: _430  and  _433
REMARK  188  A    between atoms: _433  and  _434
REMARK  189  A    between atoms: _437  and  _439
REMARK  190  A    between atoms: _439  and  _440
REMARK  191  A    between atoms: _439  and  _442
REMARK  192  A    between atoms: _442  and  _443
REMARK  193  A    between atoms: _446  and  _448
REMARK  194  A    between atoms: _448  and  _449
REMARK  195  A    between atoms: _448  and  _451
REMARK  196  A    between atoms: _451  and  _452
REMARK  197  A    between atoms: _455  and  _457
REMARK  198  A    between atoms: _457  and  _458
REMARK  199  A    between atoms: _457  and  _460
REMARK  200  A    between atoms: _460  and  _461
REMARK  201  A    between atoms: _466  and  _468
REMARK  202  A    between atoms: _468  and  _469
REMARK  203  A    between atoms: _468  and  _471
REMARK  204  A    between atoms: _471  and  _472
REMARK  205  A    between atoms: _472  and  _473
REMARK  206  A    between atoms: _473  and  _474
REMARK  207  A    between atoms: _474  and  _475
REMARK  208  A    between atoms: _479  and  _481
REMARK  209  A    between atoms: _481  and  _482
REMARK  210  A    between atoms: _481  and  _484
REMARK  211  A    between atoms: _484  and  _485
REMARK  212  A    between atoms: _488  and  _490
REMARK  213  A    between atoms: _490  and  _491
REMARK  214  A    between atoms: _494  and  _496
REMARK  215  A    between atoms: _496  and  _497
REMARK  216  A    between atoms: _496  and  _499
REMARK  217  A    between atoms: _499  and  _500
REMARK  218  A    between atoms: _503  and  _505
REMARK  219  A    between atoms: _505  and  _506
REMARK  220  A    between atoms: _505  and  _508
REMARK  221  A    between atoms: _508  and  _509
REMARK  222  A    between atoms: _515  and  _517
REMARK  223  A    between atoms: _517  and  _518
REMARK  224  A    between atoms: _520  and  _522
REMARK  225  A    between atoms: _522  and  _523
REMARK  226  A    between atoms: _522  and  _525
REMARK  227  A    between atoms: _525  and  _526
REMARK  228  A    between atoms: _526  and  _527
REMARK  229  A    between atoms: _527  and  _528
REMARK                            x       y       z     vdW  Elec       q    Type
REMARK                         _______ _______ _______ _____ _____    ______ ____
ROOT
ATOM      1  CA  GLU A   1     -11.738 -13.022  13.438  0.00  0.00    +0.134 C 
ENDROOT
BRANCH   1   2
ATOM      2  N   GLU A   1     -11.399 -11.940  12.518  0.00  0.00    -0.239 NA
ATOM      3  H   GLU A   1     -10.504 -11.424  12.636  0.00  0.00    +0.142 HD
ENDBRANCH   1   2
BRANCH   1   4
ATOM      4  C   GLU A   1     -13.073 -12.776  14.126  0.00  0.00    +0.224 C 
ATOM      5  O   GLU A   1     -13.922 -13.656  14.137  0.00  0.00    -0.287 OA
ENDBRANCH   1   4
BRANCH   1   6
ATOM      6  CB  GLU A   1     -10.645 -13.301  14.484  0.00  0.00    +0.037 C 
BRANCH   6   7
ATOM      7  CG  GLU A   1     -11.117 -14.326  15.522  0.00  0.00    +0.116 C 
BRANCH   7   8
ATOM      8  CD  GLU A   1     -10.019 -14.958  16.356  0.00  0.00    +0.365 C 
ATOM      9  OE2 GLU A   1      -9.091 -14.245  16.792  0.00  0.00    -0.246 OA
ATOM     10  OE1 GLU A   1     -10.103 -16.188  16.587  0.00  0.00    -0.246 OA
ENDBRANCH   7   8
ENDBRANCH   6   7
ENDBRANCH   1   6
TORSDOF 5
REMARK  Name = ../refined-set-2016/4eor/4eor_pocket.pdb
REMARK  229 active torsions:
REMARK  status: ('A' for Active; 'I' for Inactive)
REMARK    1  A    between atoms: _1  and  _3
REMARK    2  A    between atoms: _3  and  _4
REMARK    3  A    between atoms: _3  and  _6
REMARK    4  A    between atoms: _6  and  _7
REMARK    5  A    between atoms: _7  and  _8
REMARK    6  A    between atoms: _11  and  _13
REMARK    7  A    between atoms: _13  and  _14
REMARK    8  A    between atoms: _13  and  _16
REMARK    9  A    between atoms: _16  and  _17
REMARK   10  A    between atoms: _17  and  _18
REMARK   11  A    between atoms: _18  and  _19
REMARK   12  A    between atoms: _19  and  _20
REMARK   13  A    between atoms: _24  and  _26
REMARK   14  A    between atoms: _26  and  _27
REMARK   15  A    between atoms: _26  and  _29
REMARK   16  A    between atoms: _29  and  _30
REMARK   17  A    between atoms: _33  and  _35
REMARK   18  A    between atoms: _35  and  _36
REMARK   19  A    between atoms: _38  and  _40
REMARK   20  A    between atoms: _40  and  _41
REMARK   21  A    between atoms: _40  and  _43
REMARK   22  A    between atoms: _43  and  _44
REMARK   23  A    between atoms: _44  and  _45
REMARK   24  A    between atoms: _48  and  _50
REMARK   25  A    between atoms: _50  and  _51
REMARK   26  A    between atoms: _53  and  _55
REMARK   27  A    between atoms: _55  and  _56
REMARK   28  A    between atoms: _55  and  _58
REMARK   29  A    between atoms: _58  and  _59
REMARK   30  A    between atoms: _62  and  _64
REMARK   31  A    between atoms: _64  and  _65
REMARK   32  A    between atoms: _64  and  _67
REMARK   33  A    between atoms: _67  and  _68
REMARK   34  A    between atoms: _73  and  _74
REMARK   35  A    between atoms: _76  and  _78
REMARK   36  A    between atoms: _78  and  _79
REMARK   37  A    between atoms: _81  and  _83
REMARK   38  A    between atoms: _83  and  _84
REMARK   39  A    between atoms: _83  and  _86
REMARK   40  A    between atoms: _89  and  _91
REMARK   41  A    between atoms: _91  and  _92
REMARK   42  A    between atoms: _91  and  _94
REMARK   43  A    between atoms: _97  and  _99
REMARK   44  A    between atoms: _99  and  _100
REMARK   45  A    between atoms: _99  and  _102
REMARK   46  A    between atoms: _102  and  _103
REMARK   47  A    between atoms: _108  and  _109
REMARK   48  A    between atoms: _111  and  _113
REMARK   49  A    between atoms: _113  and  _114
REMARK   50  A    between atoms: _113  and  _116
REMARK   51  A    between atoms: _116  and  _117
REMARK   52  A    between atoms: _117  and  _118
REMARK   53  A    between atoms: _118  and  _119
REMARK   54  A    between atoms: _119  and  _120
REMARK   55  A    between atoms: _124  and  _126
REMARK   56  A    between atoms: _126  and  _127
REMARK   57  A    between atoms: _126  and  _129
REMARK   58  A    between atoms: _132  and  _134
REMARK   59  A    between atoms: _134  and  _135
REMARK   60  A    between atoms: _134  and  _137
REMARK   61  A    between atoms: _140  and  _142
REMARK   62  A    between atoms: _142  and  _143
REMARK   63  A    between atoms: _146  and  _148
REMARK   64  A    between atoms: _148  and  _149
REMARK   65  A    between atoms: _148  and  _151
REMARK   66  A    between atoms: _151  and  _152
REMARK   67  A    between atoms: _155  and  _157
REMARK   68  A    between atoms: _157  and  _158
REMARK   69  A    between atoms: _157  and  _160
REMARK   70  A    between atoms: _160  and  _161
REMARK   71  A    between atoms: _161  and  _162
REMARK   72  A    between atoms: _162  and  _163
REMARK   73  A    between atoms: _163  and  _164
REMARK   74  A    between atoms: _168  and  _170
REMARK   75  A    between atoms: _170  and  _171
REMARK   76  A    between atoms: _170  and  _173
REMARK   77  A    between atoms: _173  and  _174
REMARK   78  A    between atoms: _174  and  _175
REMARK   79  A    between atoms: _178  and  _180
REMARK   80  A    between atoms: _180  and  _181
REMARK   81  A    between atoms: _180  and  _183
REMARK   82  A    between atoms: _183  and  _184
REMARK   83  A    between atoms: _187  and  _189
REMARK   84  A    between atoms: _189  and  _190
REMARK   85  A    between atoms: _189  and  _192
REMARK   86  A    between atoms: _195  and  _197
REMARK   87  A    between atoms: _197  and  _198
REMARK   88  A    between atoms: _197  and  _200
REMARK   89  A    between atoms: _200  and  _201
REMARK   90  A    between atoms: _201  and  _202
REMARK   91  A    between atoms: _202  and  _203
REMARK   92  A    between atoms: _203  and  _204
REMARK   93  A    between atoms: _208  and  _210
REMARK   94  A    between atoms: _210  and  _211
REMARK   95  A    between atoms: _210  and  _213
REMARK   96  A    between atoms: _213  and  _214
REMARK   97  A    between atoms: _217  and  _219
REMARK   98  A    between atoms: _219  and  _220
REMARK   99  A    between atoms: _219  and  _222
REMARK  100  A    between atoms: _222  and  _223
REMARK  101  A    between atoms: _226  and  _228
REMARK  102  A    between atoms: _228  and  _229
REMARK  103  A    between atoms: _228  and  _231
REMARK  104  A    between atoms: _231  and  _232
REMARK  105  A    between atoms: _235  and  _237
REMARK  106  A    between atoms: _237  and  _238
REMARK  107  A    between atoms: _237  and  _240
REMARK  108  A    between atoms: _243  and  _245
REMARK  109  A    between atoms: _245  and  _246
REMARK  110  A    between atoms: _245  and  _248
REMARK  111  A    between atoms: _248  and  _249
REMARK  112  A    between atoms: _255  and  _257
REMARK  113  A    between atoms: _257  and  _258
REMARK  114  A    between atoms: _257  and  _260
REMARK  115  A    between atoms: _260  and  _261
REMARK  116  A    between atoms: _261  and  _262
REMARK  117  A    between atoms: _265  and  _267
REMARK  118  A    between atoms: _267  and  _268
REMARK  119  A    between atoms: _267  and  _270
REMARK  120  A    between atoms: _270  and  _271
REMARK  121  A    between atoms: _277  and  _279
REMARK  122  A    between atoms: _279  and  _280
REMARK  123  A    between atoms: _279  and  _282
REMARK  124  A    between atoms: _282  and  _283
REMARK  125  A    between atoms: _286  and  _288
REMARK  126  A    between atoms: _288  and  _289
REMARK  127  A    between atoms: _288  and  _291
REMARK  128  A    between atoms: _291  and  _292
REMARK  129  A    between atoms: _297  and  _299
REMARK  130  A    between atoms: _299  and  _300
REMARK  131  A    between atoms: _299  and  _302
REMARK  132  A    between atoms: _302  and  _303
REMARK  133  A    between atoms: _303  and  _304
REMARK  134  A    between atoms: _309  and  _311
REMARK  135  A    between atoms: _311  and  _312
REMARK  136  A    between atoms: _311  and  _314
REMARK  137  A    between atoms: _314  and  _315
REMARK  138  A    between atoms: _318  and  _320
REMARK  139  A    between atoms: _320  and  _321
REMARK  140  A    between atoms: _320  and  _323
REMARK  141  A    between atoms: _323  and  _324
REMARK  142  A    between atoms: _327  and  _329
REMARK  143  A    between atoms: _329  and  _330
REMARK  144  A    between atoms: _329  and  _332
REMARK  145  A    between atoms: _332  and  _333
REMARK  146  A    between atoms: _333  and  _334
REMARK  147  A    between atoms: _334  and  _335
REMARK  148  A    between atoms: _335  and  _336
REMARK  149  A    between atoms: _340  and  _342
REMARK  150  A    between atoms: _342  and  _343
REMARK  151  A    between atoms: _342  and  _345
REMARK  152  A    between atoms: _345  and  _346
REMARK  153  A    between atoms: _346  and  _347
REMARK  154  A    between atoms: _347  and  _348
REMARK  155  A    between atoms: _348  and  _349
REMARK  156  A    between atoms: _353  and  _355
REMARK  157  A    between atoms: _355  and  _356
REMARK  158  A    between atoms: _355  and  _358
REMARK  159  A    between atoms: _358  and  _359
REMARK  160  A    between atoms: _365  and  _367
REMARK  161  A    between atoms: _367  and  _368
REMARK  162  A    between atoms: _367  and  _370
REMARK  163  A    between atoms: _370  and  _371
REMARK  164  A    between atoms: _376  and  _378
REMARK  165  A    between atoms: _378  and  _379
REMARK  166  A    between atoms: _378  and  _381
REMARK  167  A    between atoms: _381  and  _382
REMARK  168  A    between atoms: _385  and  _387
REMARK  169  A    between atoms: _387  and  _388
REMARK  170  A    between atoms: _387  and  _390
REMARK  171  A    between atoms: _390  and  _391
REMARK  172  A    between atoms: _391  and  _392
REMARK  173  A    between atoms: _392  and  _393
REMARK  174  A    between atoms: _393  and  _394
REMARK  175  A    between atoms: _399  and  _400
REMARK  176  A    between atoms: _405  and  _407
REMARK  177  A    between atoms: _407  and  _408
REMARK  178  A    between atoms: _407  and  _410
REMARK  179  A    between atoms: _410  and  _411
REMARK  180  A    between atoms: _411  and  _412
REMARK  181  A    between atoms: _417  and  _419
REMARK  182  A    between atoms: _419  and  _420
REMARK  183  A    between atoms: _419  and  _422
REMARK  184  A    between atoms: _422  and  _423
REMARK  185  A    between atoms: _428  and  _430
REMARK  186  A    between atoms: _430  and  _431
REMARK  187  A    between atoms: _430  and  _433
REMARK  188  A    between atoms: _433  and  _434
REMARK  189  A    between atoms: _437  and  _439
REMARK  190  A    between atoms: _439  and  _440
REMARK  191  A    between atoms: _439  and  _442
REMARK  192  A    between atoms: _442  and  _443
REMARK  193  A    between atoms: _446  and  _448
REMARK  194  A    between atoms: _448  and  _449
REMARK  195  A    between atoms: _448  and  _451
REMARK  196  A    between atoms: _451  and  _452
REMARK  197  A    between atoms: _455  and  _457
REMARK  198  A    between atoms: _457  and  _458
REMARK  199  A    between atoms: _457  and  _460
REMARK  200  A    between atoms: _460  and  _461
REMARK  201  A    between atoms: _466  and  _468
REMARK  202  A    between atoms: _468  and  _469
REMARK  203  A    between atoms: _468  and  _471
REMARK  204  A    between atoms: _471  and  _472
REMARK  205  A    between atoms: _472  and  _473
REMARK  206  A    between atoms: _473  and  _474
REMARK  207  A    between atoms: _474  and  _475
REMARK  208  A    between atoms: _479  and  _481
REMARK  209  A    between atoms: _481  and  _482
REMARK  210  A    between atoms: _481  and  _484
REMARK  211  A    between atoms: _484  and  _485
REMARK  212  A    between atoms: _488  and  _490
REMARK  213  A    between atoms: _490  and  _491
REMARK  214  A    between atoms: _494  and  _496
REMARK  215  A    between atoms: _496  and  _497
REMARK  216  A    between atoms: _496  and  _499
REMARK  217  A    between atoms: _499  and  _500
REMARK  218  A    between atoms: _503  and  _505
REMARK  219  A    between atoms: _505  and  _506
REMARK  220  A    between atoms: _505  and  _508
REMARK  221  A    between atoms: _508  and  _509
REMARK  222  A    between atoms: _515  and  _517
REMARK  223  A    between atoms: _517  and  _518
REMARK  224  A    between atoms: _520  and  _522
REMARK  225  A    between atoms: _522  and  _523
REMARK  226  A    between atoms: _522  and  _525
REMARK  227  A    between atoms: _525  and  _526
REMARK  228  A    between atoms: _526  and  _527
REMARK  229  A    between atoms: _527  and  _528
REMARK                            x       y       z     vdW  Elec       q    Type
REMARK                         _______ _______ _______ _____ _____    ______ ____
ROOT
ATOM      1  CA  LEU A   1     -16.852 -15.800  14.477  0.00  0.00    +0.133 C 
ENDROOT
BRANCH   1   2
ATOM      2  N   LEU A   1     -16.452 -14.919  13.377  0.00  0.00    -0.239 NA
ATOM      3  H   LEU A   1     -15.650 -14.271  13.511  0.00  0.00    +0.142 HD
ENDBRANCH   1   2
BRANCH   1   4
ATOM      4  C   LEU A   1     -18.254 -15.540  15.027  0.00  0.00    +0.224 C 
ATOM      5  O   LEU A   1     -18.932 -16.473  15.461  0.00  0.00    -0.287 OA
ENDBRANCH   1   4
BRANCH   1   6
ATOM      6  CB  LEU A   1     -15.814 -15.806  15.604  0.00  0.00    +0.025 C 
BRANCH   6   7
ATOM      7  CG  LEU A   1     -14.991 -17.090  15.800  0.00  0.00    +0.002 C 
ATOM      8  CD2 LEU A   1     -13.595 -16.762  16.265  0.00  0.00    +0.000 C 
ATOM      9  CD1 LEU A   1     -14.938 -18.007  14.578  0.00  0.00    +0.000 C 
ENDBRANCH   6   7
ENDBRANCH   1   6
TORSDOF 4
REMARK  Name = ../refined-set-2016/4eor/4eor_pocket.pdb
REMARK  229 active torsions:
REMARK  status: ('A' for Active; 'I' for Inactive)
REMARK    1  A    between atoms: _1  and  _3
REMARK    2  A    between atoms: _3  and  _4
REMARK    3  A    between atoms: _3  and  _6
REMARK    4  A    between atoms: _6  and  _7
REMARK    5  A    between atoms: _7  and  _8
REMARK    6  A    between atoms: _11  and  _13
REMARK    7  A    between atoms: _13  and  _14
REMARK    8  A    between atoms: _13  and  _16
REMARK    9  A    between atoms: _16  and  _17
REMARK   10  A    between atoms: _17  and  _18
REMARK   11  A    between atoms: _18  and  _19
REMARK   12  A    between atoms: _19  and  _20
REMARK   13  A    between atoms: _24  and  _26
REMARK   14  A    between atoms: _26  and  _27
REMARK   15  A    between atoms: _26  and  _29
REMARK   16  A    between atoms: _29  and  _30
REMARK   17  A    between atoms: _33  and  _35
REMARK   18  A    between atoms: _35  and  _36
REMARK   19  A    between atoms: _38  and  _40
REMARK   20  A    between atoms: _40  and  _41
REMARK   21  A    between atoms: _40  and  _43
REMARK   22  A    between atoms: _43  and  _44
REMARK   23  A    between atoms: _44  and  _45
REMARK   24  A    between atoms: _48  and  _50
REMARK   25  A    between atoms: _50  and  _51
REMARK   26  A    between atoms: _53  and  _55
REMARK   27  A    between atoms: _55  and  _56
REMARK   28  A    between atoms: _55  and  _58
REMARK   29  A    between atoms: _58  and  _59
REMARK   30  A    between atoms: _62  and  _64
REMARK   31  A    between atoms: _64  and  _65
REMARK   32  A    between atoms: _64  and  _67
REMARK   33  A    between atoms: _67  and  _68
REMARK   34  A    between atoms: _73  and  _74
REMARK   35  A    between atoms: _76  and  _78
REMARK   36  A    between atoms: _78  and  _79
REMARK   37  A    between atoms: _81  and  _83
REMARK   38  A    between atoms: _83  and  _84
REMARK   39  A    between atoms: _83  and  _86
REMARK   40  A    between atoms: _89  and  _91
REMARK   41  A    between atoms: _91  and  _92
REMARK   42  A    between atoms: _91  and  _94
REMARK   43  A    between atoms: _97  and  _99
REMARK   44  A    between atoms: _99  and  _100
REMARK   45  A    between atoms: _99  and  _102
REMARK   46  A    between atoms: _102  and  _103
REMARK   47  A    between atoms: _108  and  _109
REMARK   48  A    between atoms: _111  and  _113
REMARK   49  A    between atoms: _113  and  _114
REMARK   50  A    between atoms: _113  and  _116
REMARK   51  A    between atoms: _116  and  _117
REMARK   52  A    between atoms: _117  and  _118
REMARK   53  A    between atoms: _118  and  _119
REMARK   54  A    between atoms: _119  and  _120
REMARK   55  A    between atoms: _124  and  _126
REMARK   56  A    between atoms: _126  and  _127
REMARK   57  A    between atoms: _126  and  _129
REMARK   58  A    between atoms: _132  and  _134
REMARK   59  A    between atoms: _134  and  _135
REMARK   60  A    between atoms: _134  and  _137
REMARK   61  A    between atoms: _140  and  _142
REMARK   62  A    between atoms: _142  and  _143
REMARK   63  A    between atoms: _146  and  _148
REMARK   64  A    between atoms: _148  and  _149
REMARK   65  A    between atoms: _148  and  _151
REMARK   66  A    between atoms: _151  and  _152
REMARK   67  A    between atoms: _155  and  _157
REMARK   68  A    between atoms: _157  and  _158
REMARK   69  A    between atoms: _157  and  _160
REMARK   70  A    between atoms: _160  and  _161
REMARK   71  A    between atoms: _161  and  _162
REMARK   72  A    between atoms: _162  and  _163
REMARK   73  A    between atoms: _163  and  _164
REMARK   74  A    between atoms: _168  and  _170
REMARK   75  A    between atoms: _170  and  _171
REMARK   76  A    between atoms: _170  and  _173
REMARK   77  A    between atoms: _173  and  _174
REMARK   78  A    between atoms: _174  and  _175
REMARK   79  A    between atoms: _178  and  _180
REMARK   80  A    between atoms: _180  and  _181
REMARK   81  A    between atoms: _180  and  _183
REMARK   82  A    between atoms: _183  and  _184
REMARK   83  A    between atoms: _187  and  _189
REMARK   84  A    between atoms: _189  and  _190
REMARK   85  A    between atoms: _189  and  _192
REMARK   86  A    between atoms: _195  and  _197
REMARK   87  A    between atoms: _197  and  _198
REMARK   88  A    between atoms: _197  and  _200
REMARK   89  A    between atoms: _200  and  _201
REMARK   90  A    between atoms: _201  and  _202
REMARK   91  A    between atoms: _202  and  _203
REMARK   92  A    between atoms: _203  and  _204
REMARK   93  A    between atoms: _208  and  _210
REMARK   94  A    between atoms: _210  and  _211
REMARK   95  A    between atoms: _210  and  _213
REMARK   96  A    between atoms: _213  and  _214
REMARK   97  A    between atoms: _217  and  _219
REMARK   98  A    between atoms: _219  and  _220
REMARK   99  A    between atoms: _219  and  _222
REMARK  100  A    between atoms: _222  and  _223
REMARK  101  A    between atoms: _226  and  _228
REMARK  102  A    between atoms: _228  and  _229
REMARK  103  A    between atoms: _228  and  _231
REMARK  104  A    between atoms: _231  and  _232
REMARK  105  A    between atoms: _235  and  _237
REMARK  106  A    between atoms: _237  and  _238
REMARK  107  A    between atoms: _237  and  _240
REMARK  108  A    between atoms: _243  and  _245
REMARK  109  A    between atoms: _245  and  _246
REMARK  110  A    between atoms: _245  and  _248
REMARK  111  A    between atoms: _248  and  _249
REMARK  112  A    between atoms: _255  and  _257
REMARK  113  A    between atoms: _257  and  _258
REMARK  114  A    between atoms: _257  and  _260
REMARK  115  A    between atoms: _260  and  _261
REMARK  116  A    between atoms: _261  and  _262
REMARK  117  A    between atoms: _265  and  _267
REMARK  118  A    between atoms: _267  and  _268
REMARK  119  A    between atoms: _267  and  _270
REMARK  120  A    between atoms: _270  and  _271
REMARK  121  A    between atoms: _277  and  _279
REMARK  122  A    between atoms: _279  and  _280
REMARK  123  A    between atoms: _279  and  _282
REMARK  124  A    between atoms: _282  and  _283
REMARK  125  A    between atoms: _286  and  _288
REMARK  126  A    between atoms: _288  and  _289
REMARK  127  A    between atoms: _288  and  _291
REMARK  128  A    between atoms: _291  and  _292
REMARK  129  A    between atoms: _297  and  _299
REMARK  130  A    between atoms: _299  and  _300
REMARK  131  A    between atoms: _299  and  _302
REMARK  132  A    between atoms: _302  and  _303
REMARK  133  A    between atoms: _303  and  _304
REMARK  134  A    between atoms: _309  and  _311
REMARK  135  A    between atoms: _311  and  _312
REMARK  136  A    between atoms: _311  and  _314
REMARK  137  A    between atoms: _314  and  _315
REMARK  138  A    between atoms: _318  and  _320
REMARK  139  A    between atoms: _320  and  _321
REMARK  140  A    between atoms: _320  and  _323
REMARK  141  A    between atoms: _323  and  _324
REMARK  142  A    between atoms: _327  and  _329
REMARK  143  A    between atoms: _329  and  _330
REMARK  144  A    between atoms: _329  and  _332
REMARK  145  A    between atoms: _332  and  _333
REMARK  146  A    between atoms: _333  and  _334
REMARK  147  A    between atoms: _334  and  _335
REMARK  148  A    between atoms: _335  and  _336
REMARK  149  A    between atoms: _340  and  _342
REMARK  150  A    between atoms: _342  and  _343
REMARK  151  A    between atoms: _342  and  _345
REMARK  152  A    between atoms: _345  and  _346
REMARK  153  A    between atoms: _346  and  _347
REMARK  154  A    between atoms: _347  and  _348
REMARK  155  A    between atoms: _348  and  _349
REMARK  156  A    between atoms: _353  and  _355
REMARK  157  A    between atoms: _355  and  _356
REMARK  158  A    between atoms: _355  and  _358
REMARK  159  A    between atoms: _358  and  _359
REMARK  160  A    between atoms: _365  and  _367
REMARK  161  A    between atoms: _367  and  _368
REMARK  162  A    between atoms: _367  and  _370
REMARK  163  A    between atoms: _370  and  _371
REMARK  164  A    between atoms: _376  and  _378
REMARK  165  A    between atoms: _378  and  _379
REMARK  166  A    between atoms: _378  and  _381
REMARK  167  A    between atoms: _381  and  _382
REMARK  168  A    between atoms: _385  and  _387
REMARK  169  A    between atoms: _387  and  _388
REMARK  170  A    between atoms: _387  and  _390
REMARK  171  A    between atoms: _390  and  _391
REMARK  172  A    between atoms: _391  and  _392
REMARK  173  A    between atoms: _392  and  _393
REMARK  174  A    between atoms: _393  and  _394
REMARK  175  A    between atoms: _399  and  _400
REMARK  176  A    between atoms: _405  and  _407
REMARK  177  A    between atoms: _407  and  _408
REMARK  178  A    between atoms: _407  and  _410
REMARK  179  A    between atoms: _410  and  _411
REMARK  180  A    between atoms: _411  and  _412
REMARK  181  A    between atoms: _417  and  _419
REMARK  182  A    between atoms: _419  and  _420
REMARK  183  A    between atoms: _419  and  _422
REMARK  184  A    between atoms: _422  and  _423
REMARK  185  A    between atoms: _428  and  _430
REMARK  186  A    between atoms: _430  and  _431
REMARK  187  A    between atoms: _430  and  _433
REMARK  188  A    between atoms: _433  and  _434
REMARK  189  A    between atoms: _437  and  _439
REMARK  190  A    between atoms: _439  and  _440
REMARK  191  A    between atoms: _439  and  _442
REMARK  192  A    between atoms: _442  and  _443
REMARK  193  A    between atoms: _446  and  _448
REMARK  194  A    between atoms: _448  and  _449
REMARK  195  A    between atoms: _448  and  _451
REMARK  196  A    between atoms: _451  and  _452
REMARK  197  A    between atoms: _455  and  _457
REMARK  198  A    between atoms: _457  and  _458
REMARK  199  A    between atoms: _457  and  _460
REMARK  200  A    between atoms: _460  and  _461
REMARK  201  A    between atoms: _466  and  _468
REMARK  202  A    between atoms: _468  and  _469
REMARK  203  A    between atoms: _468  and  _471
REMARK  204  A    between atoms: _471  and  _472
REMARK  205  A    between atoms: _472  and  _473
REMARK  206  A    between atoms: _473  and  _474
REMARK  207  A    between atoms: _474  and  _475
REMARK  208  A    between atoms: _479  and  _481
REMARK  209  A    between atoms: _481  and  _482
REMARK  210  A    between atoms: _481  and  _484
REMARK  211  A    between atoms: _484  and  _485
REMARK  212  A    between atoms: _488  and  _490
REMARK  213  A    between atoms: _490  and  _491
REMARK  214  A    between atoms: _494  and  _496
REMARK  215  A    between atoms: _496  and  _497
REMARK  216  A    between atoms: _496  and  _499
REMARK  217  A    between atoms: _499  and  _500
REMARK  218  A    between atoms: _503  and  _505
REMARK  219  A    between atoms: _505  and  _506
REMARK  220  A    between atoms: _505  and  _508
REMARK  221  A    between atoms: _508  and  _509
REMARK  222  A    between atoms: _515  and  _517
REMARK  223  A    between atoms: _517  and  _518
REMARK  224  A    between atoms: _520  and  _522
REMARK  225  A    between atoms: _522  and  _523
REMARK  226  A    between atoms: _522  and  _525
REMARK  227  A    between atoms: _525  and  _526
REMARK  228  A    between atoms: _526  and  _527
REMARK  229  A    between atoms: _527  and  _528
REMARK                            x       y       z     vdW  Elec       q    Type
REMARK                         _______ _______ _______ _____ _____    ______ ____
ROOT
ATOM      1  C   LYS A   2     -17.084 -19.073  20.770  0.00  0.00    +0.241 C 
ATOM      2  O   LYS A   2     -16.506 -19.101  21.856  0.00  0.00    -0.273 OA
ATOM      3  N   LEU A   3     -17.276 -17.959  20.065  0.00  0.00    -0.297 N 
ATOM      4  H   LEU A   3     -17.614 -18.039  19.085  0.00  0.00    +0.150 HD
ENDROOT
BRANCH   1   5
ATOM      5  CA  LYS A   2     -17.614 -20.354  20.141  0.00  0.00    +0.149 C 
BRANCH   5   7
ATOM      6  C   VAL A   1     -15.819 -21.385  18.855  0.00  0.00    +0.238 C 
ATOM      7  N   LYS A   2     -16.565 -21.348  19.957  0.00  0.00    -0.297 N 
ATOM      8  H   LYS A   2     -16.394 -22.048  20.707  0.00  0.00    +0.150 HD
ATOM      9  O   VAL A   1     -15.879 -20.530  17.958  0.00  0.00    -0.274 OA
BRANCH   6  10
ATOM     10  CA  VAL A   1     -14.883 -22.594  18.730  0.00  0.00    +0.145 C 
BRANCH  10  11
ATOM     11  CB  VAL A   1     -13.412 -22.220  19.054  0.00  0.00    +0.025 C 
ATOM     12  CG2 VAL A   1     -13.277 -21.871  20.525  0.00  0.00    +0.002 C 
ATOM     13  CG1 VAL A   1     -12.913 -21.069  18.175  0.00  0.00    +0.002 C 
ENDBRANCH  10  11
BRANCH  10  14
ATOM     14  N   VAL A   1     -15.028 -23.234  17.421  0.00  0.00    -0.238 NA
ATOM     15  H   VAL A   1     -14.179 -23.441  16.857  0.00  0.00    +0.142 HD
ENDBRANCH  10  14
ENDBRANCH   6  10
ENDBRANCH   5   7
BRANCH   5  16
ATOM     16  CB  LYS A   2     -18.759 -20.930  20.980  0.00  0.00    +0.029 C 
BRANCH  16  17
ATOM     17  CG  LYS A   2     -20.035 -20.114  20.924  0.00  0.00    +0.000 C 
BRANCH  17  18
ATOM     18  CD  LYS A   2     -21.233 -20.924  21.410  0.00  0.00    -0.024 C 
BRANCH  18  19
ATOM     19  CE  LYS A   2     -22.485 -20.064  21.494  0.00  0.00    -0.086 C 
BRANCH  19  20
ATOM     20  NZ  LYS A   2     -23.696 -20.873  21.839  0.00  0.00    +0.380 N 
ATOM     21  HZ1 LYS A   2     -23.553 -21.332  22.761  0.00  0.00    -0.089 HD
ATOM     22  HZ2 LYS A   2     -24.527 -20.249  21.886  0.00  0.00    -0.089 HD
ATOM     23  HZ3 LYS A   2     -23.847 -21.598  21.109  0.00  0.00    -0.089 HD
ENDBRANCH  19  20
ENDBRANCH  18  19
ENDBRANCH  17  18
ENDBRANCH  16  17
ENDBRANCH   5  16
ENDBRANCH   1   5
BRANCH   3  24
ATOM     24  CA  LEU A   3     -17.030 -16.632  20.616  0.00  0.00    +0.149 C 
BRANCH  24  25
ATOM     25  C   LEU A   3     -18.209 -16.276  21.511  0.00  0.00    +0.241 C 
ATOM     26  N   LEU A   4     -17.923 -15.977  22.777  0.00  0.00    -0.298 N 
ATOM     27  H   LEU A   4     -16.925 -15.927  23.065  0.00  0.00    +0.150 HD
ATOM     28  O   LEU A   3     -19.354 -16.294  21.059  0.00  0.00    -0.273 OA
BRANCH  26  29
ATOM     29  CA  LEU A   4     -18.960 -15.715  23.781  0.00  0.00    +0.137 C 
BRANCH  29  30
ATOM     30  C   LEU A   4     -19.221 -14.229  24.008  0.00  0.00    +0.227 C 
ATOM     31  O   LEU A   4     -20.371 -13.821  24.169  0.00  0.00    -0.286 OA
ENDBRANCH  29  30
BRANCH  29  32
ATOM     32  CB  LEU A   4     -18.620 -16.392  25.119  0.00  0.00    +0.028 C 
BRANCH  32  33
ATOM     33  CG  LEU A   4     -18.460 -17.919  25.155  0.00  0.00    +0.002 C 
ATOM     34  CD2 LEU A   4     -18.054 -18.378  26.544  0.00  0.00    +0.000 C 
ATOM     35  CD1 LEU A   4     -19.736 -18.624  24.714  0.00  0.00    +0.000 C 
ENDBRANCH  32  33
ENDBRANCH  29  32
ENDBRANCH  26  29
ENDBRANCH  24  25
BRANCH  24  36
ATOM     36  CB  LEU A   3     -16.873 -15.600  19.498  0.00  0.00    +0.029 C 
BRANCH  36  37
ATOM     37  CG  LEU A   3     -16.534 -14.162  19.897  0.00  0.00    +0.002 C 
ATOM     38  CD2 LEU A   3     -15.143 -14.061  20.541  0.00  0.00    +0.000 C 
ATOM     39  CD1 LEU A   3     -16.633 -13.265  18.677  0.00  0.00    +0.000 C 
ENDBRANCH  36  37
ENDBRANCH  24  36
ENDBRANCH   3  24
TORSDOF 18
REMARK  Name = ../refined-set-2016/4eor/4eor_pocket.pdb
REMARK  229 active torsions:
REMARK  status: ('A' for Active; 'I' for Inactive)
REMARK    1  A    between atoms: _1  and  _3
REMARK    2  A    between atoms: _3  and  _4
REMARK    3  A    between atoms: _3  and  _6
REMARK    4  A    between atoms: _6  and  _7
REMARK    5  A    between atoms: _7  and  _8
REMARK    6  A    between atoms: _11  and  _13
REMARK    7  A    between atoms: _13  and  _14
REMARK    8  A    between atoms: _13  and  _16
REMARK    9  A    between atoms: _16  and  _17
REMARK   10  A    between atoms: _17  and  _18
REMARK   11  A    between atoms: _18  and  _19
REMARK   12  A    between atoms: _19  and  _20
REMARK   13  A    between atoms: _24  and  _26
REMARK   14  A    between atoms: _26  and  _27
REMARK   15  A    between atoms: _26  and  _29
REMARK   16  A    between atoms: _29  and  _30
REMARK   17  A    between atoms: _33  and  _35
REMARK   18  A    between atoms: _35  and  _36
REMARK   19  A    between atoms: _38  and  _40
REMARK   20  A    between atoms: _40  and  _41
REMARK   21  A    between atoms: _40  and  _43
REMARK   22  A    between atoms: _43  and  _44
REMARK   23  A    between atoms: _44  and  _45
REMARK   24  A    between atoms: _48  and  _50
REMARK   25  A    between atoms: _50  and  _51
REMARK   26  A    between atoms: _53  and  _55
REMARK   27  A    between atoms: _55  and  _56
REMARK   28  A    between atoms: _55  and  _58
REMARK   29  A    between atoms: _58  and  _59
REMARK   30  A    between atoms: _62  and  _64
REMARK   31  A    between atoms: _64  and  _65
REMARK   32  A    between atoms: _64  and  _67
REMARK   33  A    between atoms: _67  and  _68
REMARK   34  A    between atoms: _73  and  _74
REMARK   35  A    between atoms: _76  and  _78
REMARK   36  A    between atoms: _78  and  _79
REMARK   37  A    between atoms: _81  and  _83
REMARK   38  A    between atoms: _83  and  _84
REMARK   39  A    between atoms: _83  and  _86
REMARK   40  A    between atoms: _89  and  _91
REMARK   41  A    between atoms: _91  and  _92
REMARK   42  A    between atoms: _91  and  _94
REMARK   43  A    between atoms: _97  and  _99
REMARK   44  A    between atoms: _99  and  _100
REMARK   45  A    between atoms: _99  and  _102
REMARK   46  A    between atoms: _102  and  _103
REMARK   47  A    between atoms: _108  and  _109
REMARK   48  A    between atoms: _111  and  _113
REMARK   49  A    between atoms: _113  and  _114
REMARK   50  A    between atoms: _113  and  _116
REMARK   51  A    between atoms: _116  and  _117
REMARK   52  A    between atoms: _117  and  _118
REMARK   53  A    between atoms: _118  and  _119
REMARK   54  A    between atoms: _119  and  _120
REMARK   55  A    between atoms: _124  and  _126
REMARK   56  A    between atoms: _126  and  _127
REMARK   57  A    between atoms: _126  and  _129
REMARK   58  A    between atoms: _132  and  _134
REMARK   59  A    between atoms: _134  and  _135
REMARK   60  A    between atoms: _134  and  _137
REMARK   61  A    between atoms: _140  and  _142
REMARK   62  A    between atoms: _142  and  _143
REMARK   63  A    between atoms: _146  and  _148
REMARK   64  A    between atoms: _148  and  _149
REMARK   65  A    between atoms: _148  and  _151
REMARK   66  A    between atoms: _151  and  _152
REMARK   67  A    between atoms: _155  and  _157
REMARK   68  A    between atoms: _157  and  _158
REMARK   69  A    between atoms: _157  and  _160
REMARK   70  A    between atoms: _160  and  _161
REMARK   71  A    between atoms: _161  and  _162
REMARK   72  A    between atoms: _162  and  _163
REMARK   73  A    between atoms: _163  and  _164
REMARK   74  A    between atoms: _168  and  _170
REMARK   75  A    between atoms: _170  and  _171
REMARK   76  A    between atoms: _170  and  _173
REMARK   77  A    between atoms: _173  and  _174
REMARK   78  A    between atoms: _174  and  _175
REMARK   79  A    between atoms: _178  and  _180
REMARK   80  A    between atoms: _180  and  _181
REMARK   81  A    between atoms: _180  and  _183
REMARK   82  A    between atoms: _183  and  _184
REMARK   83  A    between atoms: _187  and  _189
REMARK   84  A    between atoms: _189  and  _190
REMARK   85  A    between atoms: _189  and  _192
REMARK   86  A    between atoms: _195  and  _197
REMARK   87  A    between atoms: _197  and  _198
REMARK   88  A    between atoms: _197  and  _200
REMARK   89  A    between atoms: _200  and  _201
REMARK   90  A    between atoms: _201  and  _202
REMARK   91  A    between atoms: _202  and  _203
REMARK   92  A    between atoms: _203  and  _204
REMARK   93  A    between atoms: _208  and  _210
REMARK   94  A    between atoms: _210  and  _211
REMARK   95  A    between atoms: _210  and  _213
REMARK   96  A    between atoms: _213  and  _214
REMARK   97  A    between atoms: _217  and  _219
REMARK   98  A    between atoms: _219  and  _220
REMARK   99  A    between atoms: _219  and  _222
REMARK  100  A    between atoms: _222  and  _223
REMARK  101  A    between atoms: _226  and  _228
REMARK  102  A    between atoms: _228  and  _229
REMARK  103  A    between atoms: _228  and  _231
REMARK  104  A    between atoms: _231  and  _232
REMARK  105  A    between atoms: _235  and  _237
REMARK  106  A    between atoms: _237  and  _238
REMARK  107  A    between atoms: _237  and  _240
REMARK  108  A    between atoms: _243  and  _245
REMARK  109  A    between atoms: _245  and  _246
REMARK  110  A    between atoms: _245  and  _248
REMARK  111  A    between atoms: _248  and  _249
REMARK  112  A    between atoms: _255  and  _257
REMARK  113  A    between atoms: _257  and  _258
REMARK  114  A    between atoms: _257  and  _260
REMARK  115  A    between atoms: _260  and  _261
REMARK  116  A    between atoms: _261  and  _262
REMARK  117  A    between atoms: _265  and  _267
REMARK  118  A    between atoms: _267  and  _268
REMARK  119  A    between atoms: _267  and  _270
REMARK  120  A    between atoms: _270  and  _271
REMARK  121  A    between atoms: _277  and  _279
REMARK  122  A    between atoms: _279  and  _280
REMARK  123  A    between atoms: _279  and  _282
REMARK  124  A    between atoms: _282  and  _283
REMARK  125  A    between atoms: _286  and  _288
REMARK  126  A    between atoms: _288  and  _289
REMARK  127  A    between atoms: _288  and  _291
REMARK  128  A    between atoms: _291  and  _292
REMARK  129  A    between atoms: _297  and  _299
REMARK  130  A    between atoms: _299  and  _300
REMARK  131  A    between atoms: _299  and  _302
REMARK  132  A    between atoms: _302  and  _303
REMARK  133  A    between atoms: _303  and  _304
REMARK  134  A    between atoms: _309  and  _311
REMARK  135  A    between atoms: _311  and  _312
REMARK  136  A    between atoms: _311  and  _314
REMARK  137  A    between atoms: _314  and  _315
REMARK  138  A    between atoms: _318  and  _320
REMARK  139  A    between atoms: _320  and  _321
REMARK  140  A    between atoms: _320  and  _323
REMARK  141  A    between atoms: _323  and  _324
REMARK  142  A    between atoms: _327  and  _329
REMARK  143  A    between atoms: _329  and  _330
REMARK  144  A    between atoms: _329  and  _332
REMARK  145  A    between atoms: _332  and  _333
REMARK  146  A    between atoms: _333  and  _334
REMARK  147  A    between atoms: _334  and  _335
REMARK  148  A    between atoms: _335  and  _336
REMARK  149  A    between atoms: _340  and  _342
REMARK  150  A    between atoms: _342  and  _343
REMARK  151  A    between atoms: _342  and  _345
REMARK  152  A    between atoms: _345  and  _346
REMARK  153  A    between atoms: _346  and  _347
REMARK  154  A    between atoms: _347  and  _348
REMARK  155  A    between atoms: _348  and  _349
REMARK  156  A    between atoms: _353  and  _355
REMARK  157  A    between atoms: _355  and  _356
REMARK  158  A    between atoms: _355  and  _358
REMARK  159  A    between atoms: _358  and  _359
REMARK  160  A    between atoms: _365  and  _367
REMARK  161  A    between atoms: _367  and  _368
REMARK  162  A    between atoms: _367  and  _370
REMARK  163  A    between atoms: _370  and  _371
REMARK  164  A    between atoms: _376  and  _378
REMARK  165  A    between atoms: _378  and  _379
REMARK  166  A    between atoms: _378  and  _381
REMARK  167  A    between atoms: _381  and  _382
REMARK  168  A    between atoms: _385  and  _387
REMARK  169  A    between atoms: _387  and  _388
REMARK  170  A    between atoms: _387  and  _390
REMARK  171  A    between atoms: _390  and  _391
REMARK  172  A    between atoms: _391  and  _392
REMARK  173  A    between atoms: _392  and  _393
REMARK  174  A    between atoms: _393  and  _394
REMARK  175  A    between atoms: _399  and  _400
REMARK  176  A    between atoms: _405  and  _407
REMARK  177  A    between atoms: _407  and  _408
REMARK  178  A    between atoms: _407  and  _410
REMARK  179  A    between atoms: _410  and  _411
REMARK  180  A    between atoms: _411  and  _412
REMARK  181  A    between atoms: _417  and  _419
REMARK  182  A    between atoms: _419  and  _420
REMARK  183  A    between atoms: _419  and  _422
REMARK  184  A    between atoms: _422  and  _423
REMARK  185  A    between atoms: _428  and  _430
REMARK  186  A    between atoms: _430  and  _431
REMARK  187  A    between atoms: _430  and  _433
REMARK  188  A    between atoms: _433  and  _434
REMARK  189  A    between atoms: _437  and  _439
REMARK  190  A    between atoms: _439  and  _440
REMARK  191  A    between atoms: _439  and  _442
REMARK  192  A    between atoms: _442  and  _443
REMARK  193  A    between atoms: _446  and  _448
REMARK  194  A    between atoms: _448  and  _449
REMARK  195  A    between atoms: _448  and  _451
REMARK  196  A    between atoms: _451  and  _452
REMARK  197  A    between atoms: _455  and  _457
REMARK  198  A    between atoms: _457  and  _458
REMARK  199  A    between atoms: _457  and  _460
REMARK  200  A    between atoms: _460  and  _461
REMARK  201  A    between atoms: _466  and  _468
REMARK  202  A    between atoms: _468  and  _469
REMARK  203  A    between atoms: _468  and  _471
REMARK  204  A    between atoms: _471  and  _472
REMARK  205  A    between atoms: _472  and  _473
REMARK  206  A    between atoms: _473  and  _474
REMARK  207  A    between atoms: _474  and  _475
REMARK  208  A    between atoms: _479  and  _481
REMARK  209  A    between atoms: _481  and  _482
REMARK  210  A    between atoms: _481  and  _484
REMARK  211  A    between atoms: _484  and  _485
REMARK  212  A    between atoms: _488  and  _490
REMARK  213  A    between atoms: _490  and  _491
REMARK  214  A    between atoms: _494  and  _496
REMARK  215  A    between atoms: _496  and  _497
REMARK  216  A    between atoms: _496  and  _499
REMARK  217  A    between atoms: _499  and  _500
REMARK  218  A    between atoms: _503  and  _505
REMARK  219  A    between atoms: _505  and  _506
REMARK  220  A    between atoms: _505  and  _508
REMARK  221  A    between atoms: _508  and  _509
REMARK  222  A    between atoms: _515  and  _517
REMARK  223  A    between atoms: _517  and  _518
REMARK  224  A    between atoms: _520  and  _522
REMARK  225  A    between atoms: _522  and  _523
REMARK  226  A    between atoms: _522  and  _525
REMARK  227  A    between atoms: _525  and  _526
REMARK  228  A    between atoms: _526  and  _527
REMARK  229  A    between atoms: _527  and  _528
REMARK                            x       y       z     vdW  Elec       q    Type
REMARK                         _______ _______ _______ _____ _____    ______ ____
ROOT
ATOM      1  C   HIS A   7      -7.643 -29.096  26.609  0.00  0.00    +0.241 C 
ATOM      2  O   HIS A   7      -6.696 -29.108  27.397  0.00  0.00    -0.273 OA
ATOM      3  N   GLN A   8      -7.504 -29.322  25.307  0.00  0.00    -0.297 N 
ATOM      4  H   GLN A   8      -8.333 -29.218  24.688  0.00  0.00    +0.150 HD
ENDROOT
BRANCH   3   5
ATOM      5  CA  GLN A   8      -6.224 -29.712  24.714  0.00  0.00    +0.149 C 
BRANCH   5   6
ATOM      6  C   GLN A   8      -6.281 -29.529  23.202  0.00  0.00    +0.241 C 
ATOM      7  O   GLN A   8      -7.357 -29.598  22.618  0.00  0.00    -0.273 OA
ATOM      8  N   ASP A   9      -5.133 -29.279  22.573  0.00  0.00    -0.297 N 
ATOM      9  H   ASP A   9      -4.276 -29.082  23.129  0.00  0.00    +0.150 HD
BRANCH   8  10
ATOM     10  CA  ASP A   9      -5.060 -29.277  21.108  0.00  0.00    +0.160 C 
BRANCH  10  11
ATOM     11  C   ASP A   9      -4.719 -30.665  20.572  0.00  0.00    +0.241 C 
ATOM     12  O   ASP A   9      -4.213 -31.508  21.310  0.00  0.00    -0.273 OA
ATOM     13  N   LEU A  10      -5.014 -30.892  19.295  0.00  0.00    -0.297 N 
ATOM     14  H   LEU A  10      -5.405 -30.113  18.727  0.00  0.00    +0.150 HD
BRANCH  13  15
ATOM     15  CA  LEU A  10      -4.811 -32.193  18.656  0.00  0.00    +0.149 C 
BRANCH  15  16
ATOM     16  C   LEU A  10      -3.346 -32.636  18.652  0.00  0.00    +0.241 C 
ATOM     17  O   LEU A  10      -3.060 -33.832  18.754  0.00  0.00    -0.273 OA
ATOM     18  N   LYS A  11      -2.433 -31.676  18.525  0.00  0.00    -0.297 N 
ATOM     19  H   LYS A  11      -2.749 -30.687  18.461  0.00  0.00    +0.150 HD
BRANCH  18  20
ATOM     20  CA  LYS A  11      -0.998 -31.966  18.473  0.00  0.00    +0.149 C 
BRANCH  20  21
ATOM     21  C   LYS A  11      -0.505 -32.584  19.784  0.00  0.00    +0.241 C 
ATOM     22  N   LYS A  12      -0.840 -31.958  20.908  0.00  0.00    -0.297 N 
ATOM     23  H   LYS A  12      -1.361 -31.059  20.861  0.00  0.00    +0.150 HD
ATOM     24  O   LYS A  11       0.154 -33.626  19.771  0.00  0.00    -0.273 OA
BRANCH  22  25
ATOM     25  CA  LYS A  12      -0.483 -32.522  22.213  0.00  0.00    +0.149 C 
BRANCH  25  26
ATOM     26  C   LYS A  12      -1.148 -33.882  22.448  0.00  0.00    +0.241 C 
ATOM     27  O   LYS A  12      -0.566 -34.754  23.090  0.00  0.00    -0.273 OA
ATOM     28  N   PHE A  13      -2.348 -34.063  21.894  0.00  0.00    -0.298 N 
ATOM     29  H   PHE A  13      -2.786 -33.277  21.373  0.00  0.00    +0.150 HD
BRANCH  28  30
ATOM     30  CA  PHE A  13      -3.067 -35.332  21.997  0.00  0.00    +0.141 C 
BRANCH  30  31
ATOM     31  C   PHE A  13      -2.390 -36.456  21.218  0.00  0.00    +0.227 C 
ATOM     32  O   PHE A  13      -2.377 -37.596  21.671  0.00  0.00    -0.286 OA
ENDBRANCH  30  31
BRANCH  30  33
ATOM     33  CB  PHE A  13      -4.528 -35.178  21.550  0.00  0.00    +0.054 C 
BRANCH  33  34
ATOM     34  CG  PHE A  13      -5.367 -36.415  21.768  0.00  0.00    -0.020 A 
ATOM     35  CD2 PHE A  13      -5.708 -36.826  23.055  0.00  0.00    -0.004 A 
ATOM     36  CE2 PHE A  13      -6.483 -37.967  23.264  0.00  0.00    -0.000 A 
ATOM     37  CZ  PHE A  13      -6.927 -38.707  22.173  0.00  0.00    -0.000 A 
ATOM     38  CE1 PHE A  13      -6.597 -38.306  20.884  0.00  0.00    -0.000 A 
ATOM     39  CD1 PHE A  13      -5.817 -37.165  20.690  0.00  0.00    -0.004 A 
ENDBRANCH  33  34
ENDBRANCH  30  33
ENDBRANCH  28  30
ENDBRANCH  25  26
BRANCH  25  40
ATOM     40  CB  LYS A  12      -0.791 -31.541  23.349  0.00  0.00    +0.029 C 
BRANCH  40  41
ATOM     41  CG  LYS A  12       0.006 -30.238  23.247  0.00  0.00    +0.000 C 
BRANCH  41  42
ATOM     42  CD  LYS A  12       0.344 -29.646  24.619  0.00  0.00    -0.024 C 
BRANCH  42  43
ATOM     43  CE  LYS A  12       1.467 -30.413  25.313  0.00  0.00    -0.086 C 
BRANCH  43  44
ATOM     44  NZ  LYS A  12       2.715 -30.479  24.489  0.00  0.00    +0.380 N 
ATOM     45  HZ1 LYS A  12       3.444 -31.010  25.007  0.00  0.00    -0.089 HD
ATOM     46  HZ2 LYS A  12       3.056 -29.515  24.300  0.00  0.00    -0.089 HD
ATOM     47  HZ3 LYS A  12       2.510 -30.958  23.589  0.00  0.00    -0.089 HD
ENDBRANCH  43  44
ENDBRANCH  42  43
ENDBRANCH  41  42
ENDBRANCH  40  41
ENDBRANCH  25  40
ENDBRANCH  22  25
ENDBRANCH  20  21
BRANCH  20  48
ATOM     48  CB  LYS A  11      -0.194 -30.709  18.111  0.00  0.00    +0.029 C 
BRANCH  48  49
ATOM     49  CG  LYS A  11       1.336 -30.899  18.014  0.00  0.00    +0.000 C 
BRANCH  49  50
ATOM     50  CD  LYS A  11       1.745 -32.019  17.054  0.00  0.00    -0.024 C 
BRANCH  50  51
ATOM     51  CE  LYS A  11       3.249 -31.982  16.777  0.00  0.00    -0.086 C 
BRANCH  51  52
ATOM     52  NZ  LYS A  11       3.805 -33.340  16.492  0.00  0.00    +0.380 N 
ATOM     53  HZ1 LYS A  11       3.642 -33.959  17.312  0.00  0.00    -0.089 HD
ATOM     54  HZ2 LYS A  11       4.826 -33.264  16.311  0.00  0.00    -0.089 HD
ATOM     55  HZ3 LYS A  11       3.332 -33.738  15.656  0.00  0.00    -0.089 HD
ENDBRANCH  51  52
ENDBRANCH  50  51
ENDBRANCH  49  50
ENDBRANCH  48  49
ENDBRANCH  20  48
ENDBRANCH  18  20
ENDBRANCH  15  16
BRANCH  15  56
ATOM     56  CB  LEU A  10      -5.377 -32.199  17.225  0.00  0.00    +0.029 C 
BRANCH  56  57
ATOM     57  CG  LEU A  10      -5.307 -33.498  16.400  0.00  0.00    +0.002 C 
ATOM     58  CD2 LEU A  10      -6.122 -34.640  17.028  0.00  0.00    +0.000 C 
ATOM     59  CD1 LEU A  10      -5.739 -33.265  14.959  0.00  0.00    +0.000 C 
ENDBRANCH  56  57
ENDBRANCH  15  56
ENDBRANCH  13  15
ENDBRANCH  10  11
BRANCH  10  60
ATOM     60  CB  ASP A   9      -4.122 -28.183  20.559  0.00  0.00    +0.143 C 
BRANCH  60  61
ATOM     61  CG  ASP A   9      -2.654 -28.392  20.923  0.00  0.00    +0.367 C 
ATOM     62  OD2 ASP A   9      -2.029 -27.425  21.414  0.00  0.00    -0.246 OA
ATOM     63  OD1 ASP A   9      -2.106 -29.490  20.688  0.00  0.00    -0.246 OA
ENDBRANCH  60  61
ENDBRANCH  10  60
ENDBRANCH   8  10
ENDBRANCH   5   6
BRANCH   5  64
ATOM     64  CB  GLN A   8      -5.935 -31.177  25.048  0.00  0.00    +0.039 C 
BRANCH  64  65
ATOM     65  CG  GLN A   8      -4.567 -31.683  24.636  0.00  0.00    +0.087 C 
BRANCH  65  66
ATOM     66  CD  GLN A   8      -4.203 -32.969  25.334  0.00  0.00    +0.219 C 
ATOM     67  NE2 GLN A   8      -3.795 -32.864  26.594  0.00  0.00    -0.329 N 
ATOM     68 HE21 GLN A   8      -3.546 -33.718  27.133  0.00  0.00    +0.145 HD
ATOM     69 HE22 GLN A   8      -3.725 -31.928  27.041  0.00  0.00    +0.145 HD
ATOM     70  OE1 GLN A   8      -4.304 -34.049  24.758  0.00  0.00    -0.275 OA
ENDBRANCH  65  66
ENDBRANCH  64  65
ENDBRANCH   5  64
ENDBRANCH   3   5
BRANCH   1  71
ATOM     71  CA  HIS A   7      -9.058 -28.806  27.115  0.00  0.00    +0.155 C 
BRANCH  71  74
ATOM     72  C   LEU A   6     -10.146 -26.924  25.978  0.00  0.00    +0.241 C 
ATOM     73  O   LEU A   6      -9.326 -26.105  26.383  0.00  0.00    -0.273 OA
ATOM     74  N   HIS A   7     -10.010 -28.238  26.147  0.00  0.00    -0.297 N 
ATOM     75  H   HIS A   7     -10.595 -28.883  25.577  0.00  0.00    +0.150 HD
BRANCH  72  76
ATOM     76  CA  LEU A   6     -11.401 -26.448  25.257  0.00  0.00    +0.149 C 
BRANCH  76  79
ATOM     77  C   PHE A   5     -12.688 -24.687  26.311  0.00  0.00    +0.241 C 
ATOM     78  O   PHE A   5     -13.613 -25.449  26.574  0.00  0.00    -0.273 OA
ATOM     79  N   LEU A   6     -11.637 -25.053  25.594  0.00  0.00    -0.297 N 
ATOM     80  H   LEU A   6     -10.967 -24.329  25.265  0.00  0.00    +0.150 HD
BRANCH  77  81
ATOM     81  CA  PHE A   5     -12.691 -23.241  26.800  0.00  0.00    +0.153 C 
BRANCH  81  83
ATOM     82  C   GLU A   4     -14.209 -22.009  25.358  0.00  0.00    +0.241 C 
ATOM     83  N   PHE A   5     -13.960 -22.576  26.535  0.00  0.00    -0.297 N 
ATOM     84  H   PHE A   5     -14.685 -22.544  27.280  0.00  0.00    +0.150 HD
ATOM     85  O   GLU A   4     -13.377 -21.962  24.456  0.00  0.00    -0.273 OA
BRANCH  82  86
ATOM     86  CA  GLU A   4     -15.592 -21.370  25.175  0.00  0.00    +0.149 C 
BRANCH  86  89
ATOM     87  C   PHE A   3     -14.687 -19.123  24.971  0.00  0.00    +0.241 C 
ATOM     88  O   PHE A   3     -14.295 -19.123  26.140  0.00  0.00    -0.273 OA
ATOM     89  N   GLU A   4     -15.440 -20.099  24.463  0.00  0.00    -0.297 N 
ATOM     90  H   GLU A   4     -15.924 -19.957  23.553  0.00  0.00    +0.150 HD
BRANCH  87  91
ATOM     91  CA  PHE A   3     -14.278 -17.999  24.021  0.00  0.00    +0.153 C 
BRANCH  91  93
ATOM     92  C   VAL A   2     -14.595 -15.643  24.683  0.00  0.00    +0.241 C 
ATOM     93  N   PHE A   3     -13.910 -16.784  24.756  0.00  0.00    -0.297 N 
ATOM     94  H   PHE A   3     -13.069 -16.815  25.367  0.00  0.00    +0.150 HD
ATOM     95  O   VAL A   2     -15.605 -15.502  23.995  0.00  0.00    -0.273 OA
BRANCH  92  96
ATOM     96  CA  VAL A   2     -14.057 -14.475  25.518  0.00  0.00    +0.148 C 
BRANCH  96  99
ATOM     97  C   LEU A   1     -12.412 -13.133  24.292  0.00  0.00    +0.238 C 
ATOM     98  O   LEU A   1     -11.460 -13.812  24.678  0.00  0.00    -0.274 OA
ATOM     99  N   VAL A   2     -13.674 -13.368  24.643  0.00  0.00    -0.297 N 
ATOM    100  H   VAL A   2     -14.418 -12.739  24.280  0.00  0.00    +0.150 HD
BRANCH  97 101
ATOM    101  CA  LEU A   1     -12.188 -11.935  23.375  0.00  0.00    +0.145 C 
BRANCH 101 102
ATOM    102  N   LEU A   1     -11.236 -11.014  23.984  0.00  0.00    -0.238 NA
ATOM    103  H   LEU A   1     -10.226 -11.263  23.997  0.00  0.00    +0.142 HD
ENDBRANCH 101 102
BRANCH 101 104
ATOM    104  CB  LEU A   1     -11.713 -12.389  21.987  0.00  0.00    +0.026 C 
BRANCH 104 105
ATOM    105  CG  LEU A   1     -11.302 -11.335  20.950  0.00  0.00    +0.002 C 
ATOM    106  CD2 LEU A   1     -12.313 -10.200  20.866  0.00  0.00    +0.000 C 
ATOM    107  CD1 LEU A   1     -11.138 -11.987  19.593  0.00  0.00    +0.000 C 
ENDBRANCH 104 105
ENDBRANCH 101 104
ENDBRANCH  97 101
ENDBRANCH  96  99
BRANCH  96 108
ATOM    108  CB  VAL A   2     -15.131 -14.039  26.552  0.00  0.00    +0.027 C 
ATOM    109  CG2 VAL A   2     -15.357 -15.132  27.596  0.00  0.00    +0.002 C 
ATOM    110  CG1 VAL A   2     -14.756 -12.711  27.215  0.00  0.00    +0.002 C 
ENDBRANCH  96 108
ENDBRANCH  92  96
ENDBRANCH  91  93
BRANCH  91 111
ATOM    111  CB  PHE A   3     -13.080 -18.531  23.233  0.00  0.00    +0.055 C 
BRANCH 111 112
ATOM    112  CG  PHE A   3     -12.664 -17.687  22.064  0.00  0.00    -0.020 A 
ATOM    113  CD2 PHE A   3     -11.692 -16.706  22.209  0.00  0.00    -0.004 A 
ATOM    114  CE2 PHE A   3     -11.282 -15.938  21.123  0.00  0.00    -0.000 A 
ATOM    115  CZ  PHE A   3     -11.834 -16.165  19.870  0.00  0.00    -0.000 A 
ATOM    116  CE1 PHE A   3     -12.795 -17.154  19.710  0.00  0.00    -0.000 A 
ATOM    117  CD1 PHE A   3     -13.200 -17.914  20.805  0.00  0.00    -0.004 A 
ENDBRANCH 111 112
ENDBRANCH  91 111
ENDBRANCH  87  91
ENDBRANCH  86  89
BRANCH  86 118
ATOM    118  CB  GLU A   4     -16.525 -22.327  24.425  0.00  0.00    +0.041 C 
BRANCH 118 119
ATOM    119  CG  GLU A   4     -15.989 -22.822  23.070  0.00  0.00    +0.116 C 
BRANCH 119 120
ATOM    120  CD  GLU A   4     -16.772 -23.995  22.506  0.00  0.00    +0.365 C 
ATOM    121  OE2 GLU A   4     -16.955 -25.003  23.220  0.00  0.00    -0.246 OA
ATOM    122  OE1 GLU A   4     -17.192 -23.917  21.331  0.00  0.00    -0.246 OA
ENDBRANCH 119 120
ENDBRANCH 118 119
ENDBRANCH  86 118
ENDBRANCH  82  86
ENDBRANCH  81  83
BRANCH  81 123
ATOM    123  CB  PHE A   5     -12.349 -23.186  28.292  0.00  0.00    +0.055 C 
BRANCH 123 124
ATOM    124  CG  PHE A   5     -11.059 -23.887  28.656  0.00  0.00    -0.020 A 
ATOM    125  CD2 PHE A   5     -11.082 -25.092  29.355  0.00  0.00    -0.004 A 
ATOM    126  CE2 PHE A   5      -9.895 -25.745  29.709  0.00  0.00    -0.000 A 
ATOM    127  CZ  PHE A   5      -8.668 -25.188  29.368  0.00  0.00    -0.000 A 
ATOM    128  CE1 PHE A   5      -8.631 -23.980  28.666  0.00  0.00    -0.000 A 
ATOM    129  CD1 PHE A   5      -9.826 -23.335  28.317  0.00  0.00    -0.004 A 
ENDBRANCH 123 124
ENDBRANCH  81 123
ENDBRANCH  77  81
ENDBRANCH  76  79
BRANCH  76 130
ATOM    130  CB  LEU A   6     -11.331 -26.647  23.741  0.00  0.00    +0.029 C 
BRANCH 130 131
ATOM    131  CG  LEU A   6     -12.743 -26.707  23.154  0.00  0.00    +0.002 C 
ATOM    132  CD2 LEU A   6     -13.167 -25.356  22.580  0.00  0.00    +0.000 C 
ATOM    133  CD1 LEU A   6     -12.827 -27.780  22.107  0.00  0.00    +0.000 C 
ENDBRANCH 130 131
ENDBRANCH  76 130
ENDBRANCH  72  76
ENDBRANCH  71  74
BRANCH  71 134
ATOM    134  CB  HIS A   7      -9.650 -30.065  27.753  0.00  0.00    +0.076 C 
BRANCH 134 135
ATOM    135  CG  HIS A   7     -10.873 -29.803  28.574  0.00  0.00    +0.082 A 
ATOM    136  CD2 HIS A   7     -11.033 -29.642  29.910  0.00  0.00    +0.115 A 
ATOM    137  NE2 HIS A   7     -12.370 -29.418  30.134  0.00  0.00    -0.221 NA
ATOM    138  CE1 HIS A   7     -13.009 -29.438  28.976  0.00  0.00    +0.199 A 
ATOM    139  ND1 HIS A   7     -12.128 -29.668  28.018  0.00  0.00    -0.227 NA
ENDBRANCH 134 135
ENDBRANCH  71 134
ENDBRANCH   1  71
TORSDOF 59
REMARK  Name = ../refined-set-2016/4eor/4eor_pocket.pdb
REMARK  229 active torsions:
REMARK  status: ('A' for Active; 'I' for Inactive)
REMARK    1  A    between atoms: _1  and  _3
REMARK    2  A    between atoms: _3  and  _4
REMARK    3  A    between atoms: _3  and  _6
REMARK    4  A    between atoms: _6  and  _7
REMARK    5  A    between atoms: _7  and  _8
REMARK    6  A    between atoms: _11  and  _13
REMARK    7  A    between atoms: _13  and  _14
REMARK    8  A    between atoms: _13  and  _16
REMARK    9  A    between atoms: _16  and  _17
REMARK   10  A    between atoms: _17  and  _18
REMARK   11  A    between atoms: _18  and  _19
REMARK   12  A    between atoms: _19  and  _20
REMARK   13  A    between atoms: _24  and  _26
REMARK   14  A    between atoms: _26  and  _27
REMARK   15  A    between atoms: _26  and  _29
REMARK   16  A    between atoms: _29  and  _30
REMARK   17  A    between atoms: _33  and  _35
REMARK   18  A    between atoms: _35  and  _36
REMARK   19  A    between atoms: _38  and  _40
REMARK   20  A    between atoms: _40  and  _41
REMARK   21  A    between atoms: _40  and  _43
REMARK   22  A    between atoms: _43  and  _44
REMARK   23  A    between atoms: _44  and  _45
REMARK   24  A    between atoms: _48  and  _50
REMARK   25  A    between atoms: _50  and  _51
REMARK   26  A    between atoms: _53  and  _55
REMARK   27  A    between atoms: _55  and  _56
REMARK   28  A    between atoms: _55  and  _58
REMARK   29  A    between atoms: _58  and  _59
REMARK   30  A    between atoms: _62  and  _64
REMARK   31  A    between atoms: _64  and  _65
REMARK   32  A    between atoms: _64  and  _67
REMARK   33  A    between atoms: _67  and  _68
REMARK   34  A    between atoms: _73  and  _74
REMARK   35  A    between atoms: _76  and  _78
REMARK   36  A    between atoms: _78  and  _79
REMARK   37  A    between atoms: _81  and  _83
REMARK   38  A    between atoms: _83  and  _84
REMARK   39  A    between atoms: _83  and  _86
REMARK   40  A    between atoms: _89  and  _91
REMARK   41  A    between atoms: _91  and  _92
REMARK   42  A    between atoms: _91  and  _94
REMARK   43  A    between atoms: _97  and  _99
REMARK   44  A    between atoms: _99  and  _100
REMARK   45  A    between atoms: _99  and  _102
REMARK   46  A    between atoms: _102  and  _103
REMARK   47  A    between atoms: _108  and  _109
REMARK   48  A    between atoms: _111  and  _113
REMARK   49  A    between atoms: _113  and  _114
REMARK   50  A    between atoms: _113  and  _116
REMARK   51  A    between atoms: _116  and  _117
REMARK   52  A    between atoms: _117  and  _118
REMARK   53  A    between atoms: _118  and  _119
REMARK   54  A    between atoms: _119  and  _120
REMARK   55  A    between atoms: _124  and  _126
REMARK   56  A    between atoms: _126  and  _127
REMARK   57  A    between atoms: _126  and  _129
REMARK   58  A    between atoms: _132  and  _134
REMARK   59  A    between atoms: _134  and  _135
REMARK   60  A    between atoms: _134  and  _137
REMARK   61  A    between atoms: _140  and  _142
REMARK   62  A    between atoms: _142  and  _143
REMARK   63  A    between atoms: _146  and  _148
REMARK   64  A    between atoms: _148  and  _149
REMARK   65  A    between atoms: _148  and  _151
REMARK   66  A    between atoms: _151  and  _152
REMARK   67  A    between atoms: _155  and  _157
REMARK   68  A    between atoms: _157  and  _158
REMARK   69  A    between atoms: _157  and  _160
REMARK   70  A    between atoms: _160  and  _161
REMARK   71  A    between atoms: _161  and  _162
REMARK   72  A    between atoms: _162  and  _163
REMARK   73  A    between atoms: _163  and  _164
REMARK   74  A    between atoms: _168  and  _170
REMARK   75  A    between atoms: _170  and  _171
REMARK   76  A    between atoms: _170  and  _173
REMARK   77  A    between atoms: _173  and  _174
REMARK   78  A    between atoms: _174  and  _175
REMARK   79  A    between atoms: _178  and  _180
REMARK   80  A    between atoms: _180  and  _181
REMARK   81  A    between atoms: _180  and  _183
REMARK   82  A    between atoms: _183  and  _184
REMARK   83  A    between atoms: _187  and  _189
REMARK   84  A    between atoms: _189  and  _190
REMARK   85  A    between atoms: _189  and  _192
REMARK   86  A    between atoms: _195  and  _197
REMARK   87  A    between atoms: _197  and  _198
REMARK   88  A    between atoms: _197  and  _200
REMARK   89  A    between atoms: _200  and  _201
REMARK   90  A    between atoms: _201  and  _202
REMARK   91  A    between atoms: _202  and  _203
REMARK   92  A    between atoms: _203  and  _204
REMARK   93  A    between atoms: _208  and  _210
REMARK   94  A    between atoms: _210  and  _211
REMARK   95  A    between atoms: _210  and  _213
REMARK   96  A    between atoms: _213  and  _214
REMARK   97  A    between atoms: _217  and  _219
REMARK   98  A    between atoms: _219  and  _220
REMARK   99  A    between atoms: _219  and  _222
REMARK  100  A    between atoms: _222  and  _223
REMARK  101  A    between atoms: _226  and  _228
REMARK  102  A    between atoms: _228  and  _229
REMARK  103  A    between atoms: _228  and  _231
REMARK  104  A    between atoms: _231  and  _232
REMARK  105  A    between atoms: _235  and  _237
REMARK  106  A    between atoms: _237  and  _238
REMARK  107  A    between atoms: _237  and  _240
REMARK  108  A    between atoms: _243  and  _245
REMARK  109  A    between atoms: _245  and  _246
REMARK  110  A    between atoms: _245  and  _248
REMARK  111  A    between atoms: _248  and  _249
REMARK  112  A    between atoms: _255  and  _257
REMARK  113  A    between atoms: _257  and  _258
REMARK  114  A    between atoms: _257  and  _260
REMARK  115  A    between atoms: _260  and  _261
REMARK  116  A    between atoms: _261  and  _262
REMARK  117  A    between atoms: _265  and  _267
REMARK  118  A    between atoms: _267  and  _268
REMARK  119  A    between atoms: _267  and  _270
REMARK  120  A    between atoms: _270  and  _271
REMARK  121  A    between atoms: _277  and  _279
REMARK  122  A    between atoms: _279  and  _280
REMARK  123  A    between atoms: _279  and  _282
REMARK  124  A    between atoms: _282  and  _283
REMARK  125  A    between atoms: _286  and  _288
REMARK  126  A    between atoms: _288  and  _289
REMARK  127  A    between atoms: _288  and  _291
REMARK  128  A    between atoms: _291  and  _292
REMARK  129  A    between atoms: _297  and  _299
REMARK  130  A    between atoms: _299  and  _300
REMARK  131  A    between atoms: _299  and  _302
REMARK  132  A    between atoms: _302  and  _303
REMARK  133  A    between atoms: _303  and  _304
REMARK  134  A    between atoms: _309  and  _311
REMARK  135  A    between atoms: _311  and  _312
REMARK  136  A    between atoms: _311  and  _314
REMARK  137  A    between atoms: _314  and  _315
REMARK  138  A    between atoms: _318  and  _320
REMARK  139  A    between atoms: _320  and  _321
REMARK  140  A    between atoms: _320  and  _323
REMARK  141  A    between atoms: _323  and  _324
REMARK  142  A    between atoms: _327  and  _329
REMARK  143  A    between atoms: _329  and  _330
REMARK  144  A    between atoms: _329  and  _332
REMARK  145  A    between atoms: _332  and  _333
REMARK  146  A    between atoms: _333  and  _334
REMARK  147  A    between atoms: _334  and  _335
REMARK  148  A    between atoms: _335  and  _336
REMARK  149  A    between atoms: _340  and  _342
REMARK  150  A    between atoms: _342  and  _343
REMARK  151  A    between atoms: _342  and  _345
REMARK  152  A    between atoms: _345  and  _346
REMARK  153  A    between atoms: _346  and  _347
REMARK  154  A    between atoms: _347  and  _348
REMARK  155  A    between atoms: _348  and  _349
REMARK  156  A    between atoms: _353  and  _355
REMARK  157  A    between atoms: _355  and  _356
REMARK  158  A    between atoms: _355  and  _358
REMARK  159  A    between atoms: _358  and  _359
REMARK  160  A    between atoms: _365  and  _367
REMARK  161  A    between atoms: _367  and  _368
REMARK  162  A    between atoms: _367  and  _370
REMARK  163  A    between atoms: _370  and  _371
REMARK  164  A    between atoms: _376  and  _378
REMARK  165  A    between atoms: _378  and  _379
REMARK  166  A    between atoms: _378  and  _381
REMARK  167  A    between atoms: _381  and  _382
REMARK  168  A    between atoms: _385  and  _387
REMARK  169  A    between atoms: _387  and  _388
REMARK  170  A    between atoms: _387  and  _390
REMARK  171  A    between atoms: _390  and  _391
REMARK  172  A    between atoms: _391  and  _392
REMARK  173  A    between atoms: _392  and  _393
REMARK  174  A    between atoms: _393  and  _394
REMARK  175  A    between atoms: _399  and  _400
REMARK  176  A    between atoms: _405  and  _407
REMARK  177  A    between atoms: _407  and  _408
REMARK  178  A    between atoms: _407  and  _410
REMARK  179  A    between atoms: _410  and  _411
REMARK  180  A    between atoms: _411  and  _412
REMARK  181  A    between atoms: _417  and  _419
REMARK  182  A    between atoms: _419  and  _420
REMARK  183  A    between atoms: _419  and  _422
REMARK  184  A    between atoms: _422  and  _423
REMARK  185  A    between atoms: _428  and  _430
REMARK  186  A    between atoms: _430  and  _431
REMARK  187  A    between atoms: _430  and  _433
REMARK  188  A    between atoms: _433  and  _434
REMARK  189  A    between atoms: _437  and  _439
REMARK  190  A    between atoms: _439  and  _440
REMARK  191  A    between atoms: _439  and  _442
REMARK  192  A    between atoms: _442  and  _443
REMARK  193  A    between atoms: _446  and  _448
REMARK  194  A    between atoms: _448  and  _449
REMARK  195  A    between atoms: _448  and  _451
REMARK  196  A    between atoms: _451  and  _452
REMARK  197  A    between atoms: _455  and  _457
REMARK  198  A    between atoms: _457  and  _458
REMARK  199  A    between atoms: _457  and  _460
REMARK  200  A    between atoms: _460  and  _461
REMARK  201  A    between atoms: _466  and  _468
REMARK  202  A    between atoms: _468  and  _469
REMARK  203  A    between atoms: _468  and  _471
REMARK  204  A    between atoms: _471  and  _472
REMARK  205  A    between atoms: _472  and  _473
REMARK  206  A    between atoms: _473  and  _474
REMARK  207  A    between atoms: _474  and  _475
REMARK  208  A    between atoms: _479  and  _481
REMARK  209  A    between atoms: _481  and  _482
REMARK  210  A    between atoms: _481  and  _484
REMARK  211  A    between atoms: _484  and  _485
REMARK  212  A    between atoms: _488  and  _490
REMARK  213  A    between atoms: _490  and  _491
REMARK  214  A    between atoms: _494  and  _496
REMARK  215  A    between atoms: _496  and  _497
REMARK  216  A    between atoms: _496  and  _499
REMARK  217  A    between atoms: _499  and  _500
REMARK  218  A    between atoms: _503  and  _505
REMARK  219  A    between atoms: _505  and  _506
REMARK  220  A    between atoms: _505  and  _508
REMARK  221  A    between atoms: _508  and  _509
REMARK  222  A    between atoms: _515  and  _517
REMARK  223  A    between atoms: _517  and  _518
REMARK  224  A    between atoms: _520  and  _522
REMARK  225  A    between atoms: _522  and  _523
REMARK  226  A    between atoms: _522  and  _525
REMARK  227  A    between atoms: _525  and  _526
REMARK  228  A    between atoms: _526  and  _527
REMARK  229  A    between atoms: _527  and  _528
REMARK                            x       y       z     vdW  Elec       q    Type
REMARK                         _______ _______ _______ _____ _____    ______ ____
ROOT
ATOM      1  CB  HIS A   1     -10.063 -22.104   8.182  0.00  0.00    +0.072 C 
ENDROOT
BRANCH   1   2
ATOM      2  CG  HIS A   1      -9.441 -22.080   9.542  0.00  0.00    +0.082 A 
ATOM      3  CD2 HIS A   1      -9.981 -21.876  10.765  0.00  0.00    +0.115 A 
ATOM      4  NE2 HIS A   1      -8.955 -21.932  11.676  0.00  0.00    -0.221 NA
ATOM      5  CE1 HIS A   1      -7.823 -22.167  11.035  0.00  0.00    +0.199 A 
ATOM      6  ND1 HIS A   1      -8.089 -22.258   9.745  0.00  0.00    -0.227 NA
ENDBRANCH   1   2
BRANCH   1   7
ATOM      7  CA  HIS A   1      -9.928 -20.777   7.431  0.00  0.00    +0.139 C 
BRANCH   7   8
ATOM      8  N   HIS A   1     -10.692 -20.775   6.178  0.00  0.00    -0.239 NA
ATOM      9  H   HIS A   1     -10.926 -21.676   5.715  0.00  0.00    +0.142 HD
ENDBRANCH   7   8
BRANCH   7  10
ATOM     10  C   HIS A   1      -8.453 -20.434   7.207  0.00  0.00    +0.224 C 
ATOM     11  O   HIS A   1      -7.907 -19.553   7.876  0.00  0.00    -0.287 OA
ENDBRANCH   7  10
ENDBRANCH   1   7
TORSDOF 4
REMARK  Name = ../refined-set-2016/4eor/4eor_pocket.pdb
REMARK  229 active torsions:
REMARK  status: ('A' for Active; 'I' for Inactive)
REMARK    1  A    between atoms: _1  and  _3
REMARK    2  A    between atoms: _3  and  _4
REMARK    3  A    between atoms: _3  and  _6
REMARK    4  A    between atoms: _6  and  _7
REMARK    5  A    between atoms: _7  and  _8
REMARK    6  A    between atoms: _11  and  _13
REMARK    7  A    between atoms: _13  and  _14
REMARK    8  A    between atoms: _13  and  _16
REMARK    9  A    between atoms: _16  and  _17
REMARK   10  A    between atoms: _17  and  _18
REMARK   11  A    between atoms: _18  and  _19
REMARK   12  A    between atoms: _19  and  _20
REMARK   13  A    between atoms: _24  and  _26
REMARK   14  A    between atoms: _26  and  _27
REMARK   15  A    between atoms: _26  and  _29
REMARK   16  A    between atoms: _29  and  _30
REMARK   17  A    between atoms: _33  and  _35
REMARK   18  A    between atoms: _35  and  _36
REMARK   19  A    between atoms: _38  and  _40
REMARK   20  A    between atoms: _40  and  _41
REMARK   21  A    between atoms: _40  and  _43
REMARK   22  A    between atoms: _43  and  _44
REMARK   23  A    between atoms: _44  and  _45
REMARK   24  A    between atoms: _48  and  _50
REMARK   25  A    between atoms: _50  and  _51
REMARK   26  A    between atoms: _53  and  _55
REMARK   27  A    between atoms: _55  and  _56
REMARK   28  A    between atoms: _55  and  _58
REMARK   29  A    between atoms: _58  and  _59
REMARK   30  A    between atoms: _62  and  _64
REMARK   31  A    between atoms: _64  and  _65
REMARK   32  A    between atoms: _64  and  _67
REMARK   33  A    between atoms: _67  and  _68
REMARK   34  A    between atoms: _73  and  _74
REMARK   35  A    between atoms: _76  and  _78
REMARK   36  A    between atoms: _78  and  _79
REMARK   37  A    between atoms: _81  and  _83
REMARK   38  A    between atoms: _83  and  _84
REMARK   39  A    between atoms: _83  and  _86
REMARK   40  A    between atoms: _89  and  _91
REMARK   41  A    between atoms: _91  and  _92
REMARK   42  A    between atoms: _91  and  _94
REMARK   43  A    between atoms: _97  and  _99
REMARK   44  A    between atoms: _99  and  _100
REMARK   45  A    between atoms: _99  and  _102
REMARK   46  A    between atoms: _102  and  _103
REMARK   47  A    between atoms: _108  and  _109
REMARK   48  A    between atoms: _111  and  _113
REMARK   49  A    between atoms: _113  and  _114
REMARK   50  A    between atoms: _113  and  _116
REMARK   51  A    between atoms: _116  and  _117
REMARK   52  A    between atoms: _117  and  _118
REMARK   53  A    between atoms: _118  and  _119
REMARK   54  A    between atoms: _119  and  _120
REMARK   55  A    between atoms: _124  and  _126
REMARK   56  A    between atoms: _126  and  _127
REMARK   57  A    between atoms: _126  and  _129
REMARK   58  A    between atoms: _132  and  _134
REMARK   59  A    between atoms: _134  and  _135
REMARK   60  A    between atoms: _134  and  _137
REMARK   61  A    between atoms: _140  and  _142
REMARK   62  A    between atoms: _142  and  _143
REMARK   63  A    between atoms: _146  and  _148
REMARK   64  A    between atoms: _148  and  _149
REMARK   65  A    between atoms: _148  and  _151
REMARK   66  A    between atoms: _151  and  _152
REMARK   67  A    between atoms: _155  and  _157
REMARK   68  A    between atoms: _157  and  _158
REMARK   69  A    between atoms: _157  and  _160
REMARK   70  A    between atoms: _160  and  _161
REMARK   71  A    between atoms: _161  and  _162
REMARK   72  A    between atoms: _162  and  _163
REMARK   73  A    between atoms: _163  and  _164
REMARK   74  A    between atoms: _168  and  _170
REMARK   75  A    between atoms: _170  and  _171
REMARK   76  A    between atoms: _170  and  _173
REMARK   77  A    between atoms: _173  and  _174
REMARK   78  A    between atoms: _174  and  _175
REMARK   79  A    between atoms: _178  and  _180
REMARK   80  A    between atoms: _180  and  _181
REMARK   81  A    between atoms: _180  and  _183
REMARK   82  A    between atoms: _183  and  _184
REMARK   83  A    between atoms: _187  and  _189
REMARK   84  A    between atoms: _189  and  _190
REMARK   85  A    between atoms: _189  and  _192
REMARK   86  A    between atoms: _195  and  _197
REMARK   87  A    between atoms: _197  and  _198
REMARK   88  A    between atoms: _197  and  _200
REMARK   89  A    between atoms: _200  and  _201
REMARK   90  A    between atoms: _201  and  _202
REMARK   91  A    between atoms: _202  and  _203
REMARK   92  A    between atoms: _203  and  _204
REMARK   93  A    between atoms: _208  and  _210
REMARK   94  A    between atoms: _210  and  _211
REMARK   95  A    between atoms: _210  and  _213
REMARK   96  A    between atoms: _213  and  _214
REMARK   97  A    between atoms: _217  and  _219
REMARK   98  A    between atoms: _219  and  _220
REMARK   99  A    between atoms: _219  and  _222
REMARK  100  A    between atoms: _222  and  _223
REMARK  101  A    between atoms: _226  and  _228
REMARK  102  A    between atoms: _228  and  _229
REMARK  103  A    between atoms: _228  and  _231
REMARK  104  A    between atoms: _231  and  _232
REMARK  105  A    between atoms: _235  and  _237
REMARK  106  A    between atoms: _237  and  _238
REMARK  107  A    between atoms: _237  and  _240
REMARK  108  A    between atoms: _243  and  _245
REMARK  109  A    between atoms: _245  and  _246
REMARK  110  A    between atoms: _245  and  _248
REMARK  111  A    between atoms: _248  and  _249
REMARK  112  A    between atoms: _255  and  _257
REMARK  113  A    between atoms: _257  and  _258
REMARK  114  A    between atoms: _257  and  _260
REMARK  115  A    between atoms: _260  and  _261
REMARK  116  A    between atoms: _261  and  _262
REMARK  117  A    between atoms: _265  and  _267
REMARK  118  A    between atoms: _267  and  _268
REMARK  119  A    between atoms: _267  and  _270
REMARK  120  A    between atoms: _270  and  _271
REMARK  121  A    between atoms: _277  and  _279
REMARK  122  A    between atoms: _279  and  _280
REMARK  123  A    between atoms: _279  and  _282
REMARK  124  A    between atoms: _282  and  _283
REMARK  125  A    between atoms: _286  and  _288
REMARK  126  A    between atoms: _288  and  _289
REMARK  127  A    between atoms: _288  and  _291
REMARK  128  A    between atoms: _291  and  _292
REMARK  129  A    between atoms: _297  and  _299
REMARK  130  A    between atoms: _299  and  _300
REMARK  131  A    between atoms: _299  and  _302
REMARK  132  A    between atoms: _302  and  _303
REMARK  133  A    between atoms: _303  and  _304
REMARK  134  A    between atoms: _309  and  _311
REMARK  135  A    between atoms: _311  and  _312
REMARK  136  A    between atoms: _311  and  _314
REMARK  137  A    between atoms: _314  and  _315
REMARK  138  A    between atoms: _318  and  _320
REMARK  139  A    between atoms: _320  and  _321
REMARK  140  A    between atoms: _320  and  _323
REMARK  141  A    between atoms: _323  and  _324
REMARK  142  A    between atoms: _327  and  _329
REMARK  143  A    between atoms: _329  and  _330
REMARK  144  A    between atoms: _329  and  _332
REMARK  145  A    between atoms: _332  and  _333
REMARK  146  A    between atoms: _333  and  _334
REMARK  147  A    between atoms: _334  and  _335
REMARK  148  A    between atoms: _335  and  _336
REMARK  149  A    between atoms: _340  and  _342
REMARK  150  A    between atoms: _342  and  _343
REMARK  151  A    between atoms: _342  and  _345
REMARK  152  A    between atoms: _345  and  _346
REMARK  153  A    between atoms: _346  and  _347
REMARK  154  A    between atoms: _347  and  _348
REMARK  155  A    between atoms: _348  and  _349
REMARK  156  A    between atoms: _353  and  _355
REMARK  157  A    between atoms: _355  and  _356
REMARK  158  A    between atoms: _355  and  _358
REMARK  159  A    between atoms: _358  and  _359
REMARK  160  A    between atoms: _365  and  _367
REMARK  161  A    between atoms: _367  and  _368
REMARK  162  A    between atoms: _367  and  _370
REMARK  163  A    between atoms: _370  and  _371
REMARK  164  A    between atoms: _376  and  _378
REMARK  165  A    between atoms: _378  and  _379
REMARK  166  A    between atoms: _378  and  _381
REMARK  167  A    between atoms: _381  and  _382
REMARK  168  A    between atoms: _385  and  _387
REMARK  169  A    between atoms: _387  and  _388
REMARK  170  A    between atoms: _387  and  _390
REMARK  171  A    between atoms: _390  and  _391
REMARK  172  A    between atoms: _391  and  _392
REMARK  173  A    between atoms: _392  and  _393
REMARK  174  A    between atoms: _393  and  _394
REMARK  175  A    between atoms: _399  and  _400
REMARK  176  A    between atoms: _405  and  _407
REMARK  177  A    between atoms: _407  and  _408
REMARK  178  A    between atoms: _407  and  _410
REMARK  179  A    between atoms: _410  and  _411
REMARK  180  A    between atoms: _411  and  _412
REMARK  181  A    between atoms: _417  and  _419
REMARK  182  A    between atoms: _419  and  _420
REMARK  183  A    between atoms: _419  and  _422
REMARK  184  A    between atoms: _422  and  _423
REMARK  185  A    between atoms: _428  and  _430
REMARK  186  A    between atoms: _430  and  _431
REMARK  187  A    between atoms: _430  and  _433
REMARK  188  A    between atoms: _433  and  _434
REMARK  189  A    between atoms: _437  and  _439
REMARK  190  A    between atoms: _439  and  _440
REMARK  191  A    between atoms: _439  and  _442
REMARK  192  A    between atoms: _442  and  _443
REMARK  193  A    between atoms: _446  and  _448
REMARK  194  A    between atoms: _448  and  _449
REMARK  195  A    between atoms: _448  and  _451
REMARK  196  A    between atoms: _451  and  _452
REMARK  197  A    between atoms: _455  and  _457
REMARK  198  A    between atoms: _457  and  _458
REMARK  199  A    between atoms: _457  and  _460
REMARK  200  A    between atoms: _460  and  _461
REMARK  201  A    between atoms: _466  and  _468
REMARK  202  A    between atoms: _468  and  _469
REMARK  203  A    between atoms: _468  and  _471
REMARK  204  A    between atoms: _471  and  _472
REMARK  205  A    between atoms: _472  and  _473
REMARK  206  A    between atoms: _473  and  _474
REMARK  207  A    between atoms: _474  and  _475
REMARK  208  A    between atoms: _479  and  _481
REMARK  209  A    between atoms: _481  and  _482
REMARK  210  A    between atoms: _481  and  _484
REMARK  211  A    between atoms: _484  and  _485
REMARK  212  A    between atoms: _488  and  _490
REMARK  213  A    between atoms: _490  and  _491
REMARK  214  A    between atoms: _494  and  _496
REMARK  215  A    between atoms: _496  and  _497
REMARK  216  A    between atoms: _496  and  _499
REMARK  217  A    between atoms: _499  and  _500
REMARK  218  A    between atoms: _503  and  _505
REMARK  219  A    between atoms: _505  and  _506
REMARK  220  A    between atoms: _505  and  _508
REMARK  221  A    between atoms: _508  and  _509
REMARK  222  A    between atoms: _515  and  _517
REMARK  223  A    between atoms: _517  and  _518
REMARK  224  A    between atoms: _520  and  _522
REMARK  225  A    between atoms: _522  and  _523
REMARK  226  A    between atoms: _522  and  _525
REMARK  227  A    between atoms: _525  and  _526
REMARK  228  A    between atoms: _526  and  _527
REMARK  229  A    between atoms: _527  and  _528
REMARK                            x       y       z     vdW  Elec       q    Type
REMARK                         _______ _______ _______ _____ _____    ______ ____
ROOT
ATOM      1  CA  ASP A   1      -4.575 -22.163   8.841  0.00  0.00    +0.144 C 
ENDROOT
BRANCH   1   2
ATOM      2  N   ASP A   1      -5.624 -21.822   7.881  0.00  0.00    -0.239 NA
ATOM      3  H   ASP A   1      -6.600 -22.138   8.049  0.00  0.00    +0.142 HD
ENDBRANCH   1   2
BRANCH   1   4
ATOM      4  C   ASP A   1      -4.890 -23.428   9.623  0.00  0.00    +0.225 C 
ATOM      5  O   ASP A   1      -4.659 -23.498  10.834  0.00  0.00    -0.287 OA
ENDBRANCH   1   4
BRANCH   1   6
ATOM      6  CB  ASP A   1      -4.288 -20.992   9.793  0.00  0.00    +0.139 C 
BRANCH   6   7
ATOM      7  CG  ASP A   1      -2.898 -21.080  10.439  0.00  0.00    +0.367 C 
ATOM      8  OD2 ASP A   1      -2.711 -20.459  11.505  0.00  0.00    -0.246 OA
ATOM      9  OD1 ASP A   1      -1.999 -21.757   9.883  0.00  0.00    -0.246 OA
ENDBRANCH   6   7
ENDBRANCH   1   6
TORSDOF 4
REMARK  Name = ../refined-set-2016/4eor/4eor_pocket.pdb
REMARK  229 active torsions:
REMARK  status: ('A' for Active; 'I' for Inactive)
REMARK    1  A    between atoms: _1  and  _3
REMARK    2  A    between atoms: _3  and  _4
REMARK    3  A    between atoms: _3  and  _6
REMARK    4  A    between atoms: _6  and  _7
REMARK    5  A    between atoms: _7  and  _8
REMARK    6  A    between atoms: _11  and  _13
REMARK    7  A    between atoms: _13  and  _14
REMARK    8  A    between atoms: _13  and  _16
REMARK    9  A    between atoms: _16  and  _17
REMARK   10  A    between atoms: _17  and  _18
REMARK   11  A    between atoms: _18  and  _19
REMARK   12  A    between atoms: _19  and  _20
REMARK   13  A    between atoms: _24  and  _26
REMARK   14  A    between atoms: _26  and  _27
REMARK   15  A    between atoms: _26  and  _29
REMARK   16  A    between atoms: _29  and  _30
REMARK   17  A    between atoms: _33  and  _35
REMARK   18  A    between atoms: _35  and  _36
REMARK   19  A    between atoms: _38  and  _40
REMARK   20  A    between atoms: _40  and  _41
REMARK   21  A    between atoms: _40  and  _43
REMARK   22  A    between atoms: _43  and  _44
REMARK   23  A    between atoms: _44  and  _45
REMARK   24  A    between atoms: _48  and  _50
REMARK   25  A    between atoms: _50  and  _51
REMARK   26  A    between atoms: _53  and  _55
REMARK   27  A    between atoms: _55  and  _56
REMARK   28  A    between atoms: _55  and  _58
REMARK   29  A    between atoms: _58  and  _59
REMARK   30  A    between atoms: _62  and  _64
REMARK   31  A    between atoms: _64  and  _65
REMARK   32  A    between atoms: _64  and  _67
REMARK   33  A    between atoms: _67  and  _68
REMARK   34  A    between atoms: _73  and  _74
REMARK   35  A    between atoms: _76  and  _78
REMARK   36  A    between atoms: _78  and  _79
REMARK   37  A    between atoms: _81  and  _83
REMARK   38  A    between atoms: _83  and  _84
REMARK   39  A    between atoms: _83  and  _86
REMARK   40  A    between atoms: _89  and  _91
REMARK   41  A    between atoms: _91  and  _92
REMARK   42  A    between atoms: _91  and  _94
REMARK   43  A    between atoms: _97  and  _99
REMARK   44  A    between atoms: _99  and  _100
REMARK   45  A    between atoms: _99  and  _102
REMARK   46  A    between atoms: _102  and  _103
REMARK   47  A    between atoms: _108  and  _109
REMARK   48  A    between atoms: _111  and  _113
REMARK   49  A    between atoms: _113  and  _114
REMARK   50  A    between atoms: _113  and  _116
REMARK   51  A    between atoms: _116  and  _117
REMARK   52  A    between atoms: _117  and  _118
REMARK   53  A    between atoms: _118  and  _119
REMARK   54  A    between atoms: _119  and  _120
REMARK   55  A    between atoms: _124  and  _126
REMARK   56  A    between atoms: _126  and  _127
REMARK   57  A    between atoms: _126  and  _129
REMARK   58  A    between atoms: _132  and  _134
REMARK   59  A    between atoms: _134  and  _135
REMARK   60  A    between atoms: _134  and  _137
REMARK   61  A    between atoms: _140  and  _142
REMARK   62  A    between atoms: _142  and  _143
REMARK   63  A    between atoms: _146  and  _148
REMARK   64  A    between atoms: _148  and  _149
REMARK   65  A    between atoms: _148  and  _151
REMARK   66  A    between atoms: _151  and  _152
REMARK   67  A    between atoms: _155  and  _157
REMARK   68  A    between atoms: _157  and  _158
REMARK   69  A    between atoms: _157  and  _160
REMARK   70  A    between atoms: _160  and  _161
REMARK   71  A    between atoms: _161  and  _162
REMARK   72  A    between atoms: _162  and  _163
REMARK   73  A    between atoms: _163  and  _164
REMARK   74  A    between atoms: _168  and  _170
REMARK   75  A    between atoms: _170  and  _171
REMARK   76  A    between atoms: _170  and  _173
REMARK   77  A    between atoms: _173  and  _174
REMARK   78  A    between atoms: _174  and  _175
REMARK   79  A    between atoms: _178  and  _180
REMARK   80  A    between atoms: _180  and  _181
REMARK   81  A    between atoms: _180  and  _183
REMARK   82  A    between atoms: _183  and  _184
REMARK   83  A    between atoms: _187  and  _189
REMARK   84  A    between atoms: _189  and  _190
REMARK   85  A    between atoms: _189  and  _192
REMARK   86  A    between atoms: _195  and  _197
REMARK   87  A    between atoms: _197  and  _198
REMARK   88  A    between atoms: _197  and  _200
REMARK   89  A    between atoms: _200  and  _201
REMARK   90  A    between atoms: _201  and  _202
REMARK   91  A    between atoms: _202  and  _203
REMARK   92  A    between atoms: _203  and  _204
REMARK   93  A    between atoms: _208  and  _210
REMARK   94  A    between atoms: _210  and  _211
REMARK   95  A    between atoms: _210  and  _213
REMARK   96  A    between atoms: _213  and  _214
REMARK   97  A    between atoms: _217  and  _219
REMARK   98  A    between atoms: _219  and  _220
REMARK   99  A    between atoms: _219  and  _222
REMARK  100  A    between atoms: _222  and  _223
REMARK  101  A    between atoms: _226  and  _228
REMARK  102  A    between atoms: _228  and  _229
REMARK  103  A    between atoms: _228  and  _231
REMARK  104  A    between atoms: _231  and  _232
REMARK  105  A    between atoms: _235  and  _237
REMARK  106  A    between atoms: _237  and  _238
REMARK  107  A    between atoms: _237  and  _240
REMARK  108  A    between atoms: _243  and  _245
REMARK  109  A    between atoms: _245  and  _246
REMARK  110  A    between atoms: _245  and  _248
REMARK  111  A    between atoms: _248  and  _249
REMARK  112  A    between atoms: _255  and  _257
REMARK  113  A    between atoms: _257  and  _258
REMARK  114  A    between atoms: _257  and  _260
REMARK  115  A    between atoms: _260  and  _261
REMARK  116  A    between atoms: _261  and  _262
REMARK  117  A    between atoms: _265  and  _267
REMARK  118  A    between atoms: _267  and  _268
REMARK  119  A    between atoms: _267  and  _270
REMARK  120  A    between atoms: _270  and  _271
REMARK  121  A    between atoms: _277  and  _279
REMARK  122  A    between atoms: _279  and  _280
REMARK  123  A    between atoms: _279  and  _282
REMARK  124  A    between atoms: _282  and  _283
REMARK  125  A    between atoms: _286  and  _288
REMARK  126  A    between atoms: _288  and  _289
REMARK  127  A    between atoms: _288  and  _291
REMARK  128  A    between atoms: _291  and  _292
REMARK  129  A    between atoms: _297  and  _299
REMARK  130  A    between atoms: _299  and  _300
REMARK  131  A    between atoms: _299  and  _302
REMARK  132  A    between atoms: _302  and  _303
REMARK  133  A    between atoms: _303  and  _304
REMARK  134  A    between atoms: _309  and  _311
REMARK  135  A    between atoms: _311  and  _312
REMARK  136  A    between atoms: _311  and  _314
REMARK  137  A    between atoms: _314  and  _315
REMARK  138  A    between atoms: _318  and  _320
REMARK  139  A    between atoms: _320  and  _321
REMARK  140  A    between atoms: _320  and  _323
REMARK  141  A    between atoms: _323  and  _324
REMARK  142  A    between atoms: _327  and  _329
REMARK  143  A    between atoms: _329  and  _330
REMARK  144  A    between atoms: _329  and  _332
REMARK  145  A    between atoms: _332  and  _333
REMARK  146  A    between atoms: _333  and  _334
REMARK  147  A    between atoms: _334  and  _335
REMARK  148  A    between atoms: _335  and  _336
REMARK  149  A    between atoms: _340  and  _342
REMARK  150  A    between atoms: _342  and  _343
REMARK  151  A    between atoms: _342  and  _345
REMARK  152  A    between atoms: _345  and  _346
REMARK  153  A    between atoms: _346  and  _347
REMARK  154  A    between atoms: _347  and  _348
REMARK  155  A    between atoms: _348  and  _349
REMARK  156  A    between atoms: _353  and  _355
REMARK  157  A    between atoms: _355  and  _356
REMARK  158  A    between atoms: _355  and  _358
REMARK  159  A    between atoms: _358  and  _359
REMARK  160  A    between atoms: _365  and  _367
REMARK  161  A    between atoms: _367  and  _368
REMARK  162  A    between atoms: _367  and  _370
REMARK  163  A    between atoms: _370  and  _371
REMARK  164  A    between atoms: _376  and  _378
REMARK  165  A    between atoms: _378  and  _379
REMARK  166  A    between atoms: _378  and  _381
REMARK  167  A    between atoms: _381  and  _382
REMARK  168  A    between atoms: _385  and  _387
REMARK  169  A    between atoms: _387  and  _388
REMARK  170  A    between atoms: _387  and  _390
REMARK  171  A    between atoms: _390  and  _391
REMARK  172  A    between atoms: _391  and  _392
REMARK  173  A    between atoms: _392  and  _393
REMARK  174  A    between atoms: _393  and  _394
REMARK  175  A    between atoms: _399  and  _400
REMARK  176  A    between atoms: _405  and  _407
REMARK  177  A    between atoms: _407  and  _408
REMARK  178  A    between atoms: _407  and  _410
REMARK  179  A    between atoms: _410  and  _411
REMARK  180  A    between atoms: _411  and  _412
REMARK  181  A    between atoms: _417  and  _419
REMARK  182  A    between atoms: _419  and  _420
REMARK  183  A    between atoms: _419  and  _422
REMARK  184  A    between atoms: _422  and  _423
REMARK  185  A    between atoms: _428  and  _430
REMARK  186  A    between atoms: _430  and  _431
REMARK  187  A    between atoms: _430  and  _433
REMARK  188  A    between atoms: _433  and  _434
REMARK  189  A    between atoms: _437  and  _439
REMARK  190  A    between atoms: _439  and  _440
REMARK  191  A    between atoms: _439  and  _442
REMARK  192  A    between atoms: _442  and  _443
REMARK  193  A    between atoms: _446  and  _448
REMARK  194  A    between atoms: _448  and  _449
REMARK  195  A    between atoms: _448  and  _451
REMARK  196  A    between atoms: _451  and  _452
REMARK  197  A    between atoms: _455  and  _457
REMARK  198  A    between atoms: _457  and  _458
REMARK  199  A    between atoms: _457  and  _460
REMARK  200  A    between atoms: _460  and  _461
REMARK  201  A    between atoms: _466  and  _468
REMARK  202  A    between atoms: _468  and  _469
REMARK  203  A    between atoms: _468  and  _471
REMARK  204  A    between atoms: _471  and  _472
REMARK  205  A    between atoms: _472  and  _473
REMARK  206  A    between atoms: _473  and  _474
REMARK  207  A    between atoms: _474  and  _475
REMARK  208  A    between atoms: _479  and  _481
REMARK  209  A    between atoms: _481  and  _482
REMARK  210  A    between atoms: _481  and  _484
REMARK  211  A    between atoms: _484  and  _485
REMARK  212  A    between atoms: _488  and  _490
REMARK  213  A    between atoms: _490  and  _491
REMARK  214  A    between atoms: _494  and  _496
REMARK  215  A    between atoms: _496  and  _497
REMARK  216  A    between atoms: _496  and  _499
REMARK  217  A    between atoms: _499  and  _500
REMARK  218  A    between atoms: _503  and  _505
REMARK  219  A    between atoms: _505  and  _506
REMARK  220  A    between atoms: _505  and  _508
REMARK  221  A    between atoms: _508  and  _509
REMARK  222  A    between atoms: _515  and  _517
REMARK  223  A    between atoms: _517  and  _518
REMARK  224  A    between atoms: _520  and  _522
REMARK  225  A    between atoms: _522  and  _523
REMARK  226  A    between atoms: _522  and  _525
REMARK  227  A    between atoms: _525  and  _526
REMARK  228  A    between atoms: _526  and  _527
REMARK  229  A    between atoms: _527  and  _528
REMARK                            x       y       z     vdW  Elec       q    Type
REMARK                         _______ _______ _______ _____ _____    ______ ____
ROOT
ATOM      1  CA  ASN A   4      -5.503 -25.057  15.871  0.00  0.00    +0.158 C 
ENDROOT
BRANCH   1   4
ATOM      2  C   GLN A   3      -3.563 -25.979  17.090  0.00  0.00    +0.241 C 
ATOM      3  O   GLN A   3      -3.910 -25.478  18.158  0.00  0.00    -0.273 OA
ATOM      4  N   ASN A   4      -4.257 -25.835  15.959  0.00  0.00    -0.297 N 
ATOM      5  H   ASN A   4      -3.900 -26.295  15.098  0.00  0.00    +0.150 HD
BRANCH   2   6
ATOM      6  CA  GLN A   3      -2.284 -26.832  17.022  0.00  0.00    +0.149 C 
BRANCH   6   9
ATOM      7  C   PRO A   2      -3.124 -28.832  15.878  0.00  0.00    +0.241 C 
ATOM      8  O   PRO A   2      -3.952 -29.058  16.754  0.00  0.00    -0.273 OA
ATOM      9  N   GLN A   3      -2.270 -27.805  15.923  0.00  0.00    -0.297 N 
ATOM     10  H   GLN A   3      -1.575 -27.692  15.157  0.00  0.00    +0.150 HD
BRANCH   7  14
ATOM     11  C   LYS A   1      -3.366 -28.067  12.928  0.00  0.00    +0.241 C 
ATOM     12  O   LYS A   1      -4.277 -27.513  13.552  0.00  0.00    -0.273 OA
ATOM     13  N   PRO A   2      -2.688 -29.125  13.407  0.00  0.00    -0.272 N 
ATOM     14  CA  PRO A   2      -3.050 -29.769  14.672  0.00  0.00    +0.152 C 
ATOM     15  CB  PRO A   2      -1.926 -30.792  14.877  0.00  0.00    +0.031 C 
ATOM     16  CG  PRO A   2      -1.460 -31.099  13.494  0.00  0.00    +0.024 C 
ATOM     17  CD  PRO A   2      -1.528 -29.789  12.779  0.00  0.00    +0.094 C 
BRANCH  11  18
ATOM     18  CA  LYS A   1      -2.975 -27.541  11.557  0.00  0.00    +0.145 C 
BRANCH  18  19
ATOM     19  N   LYS A   1      -4.140 -26.798  11.094  0.00  0.00    -0.238 NA
ATOM     20  H   LYS A   1      -4.844 -26.504  11.801  0.00  0.00    +0.142 HD
ENDBRANCH  18  19
BRANCH  18  21
ATOM     21  CB  LYS A   1      -1.728 -26.643  11.649  0.00  0.00    +0.026 C 
BRANCH  21  22
ATOM     22  CG  LYS A   1      -1.840 -25.481  12.625  0.00  0.00    -0.000 C 
BRANCH  22  23
ATOM     23  CD  LYS A   1      -0.566 -24.675  12.662  0.00  0.00    -0.024 C 
BRANCH  23  24
ATOM     24  CE  LYS A   1      -0.755 -23.401  13.454  0.00  0.00    -0.086 C 
BRANCH  24  25
ATOM     25  NZ  LYS A   1       0.470 -22.562  13.435  0.00  0.00    +0.380 N 
ATOM     26  HZ1 LYS A   1       0.305 -21.697  13.988  0.00  0.00    -0.089 HD
ATOM     27  HZ2 LYS A   1       1.260 -23.095  13.851  0.00  0.00    -0.089 HD
ATOM     28  HZ3 LYS A   1       0.700 -22.309  12.453  0.00  0.00    -0.089 HD
ENDBRANCH  24  25
ENDBRANCH  23  24
ENDBRANCH  22  23
ENDBRANCH  21  22
ENDBRANCH  18  21
ENDBRANCH  11  18
ENDBRANCH   7  14
ENDBRANCH   6   9
BRANCH   6  29
ATOM     29  CB  GLN A   3      -1.045 -25.928  16.985  0.00  0.00    +0.039 C 
BRANCH  29  30
ATOM     30  CG  GLN A   3       0.274 -26.659  17.190  0.00  0.00    +0.087 C 
BRANCH  30  31
ATOM     31  CD  GLN A   3       1.029 -26.946  15.883  0.00  0.00    +0.219 C 
ATOM     32  NE2 GLN A   3       2.341 -26.740  15.926  0.00  0.00    -0.329 N 
ATOM     33 HE21 GLN A   3       2.785 -26.397  16.802  0.00  0.00    +0.145 HD
ATOM     34 HE22 GLN A   3       2.924 -26.922  15.084  0.00  0.00    +0.145 HD
ATOM     35  OE1 GLN A   3       0.451 -27.354  14.865  0.00  0.00    -0.275 OA
ENDBRANCH  30  31
ENDBRANCH  29  30
ENDBRANCH   6  29
ENDBRANCH   2   6
ENDBRANCH   1   4
BRANCH   1  36
ATOM     36  C   ASN A   4      -6.773 -25.904  15.942  0.00  0.00    +0.241 C 
ATOM     37  N   LEU A   5      -6.616 -27.196  16.197  0.00  0.00    -0.297 N 
ATOM     38  H   LEU A   5      -5.655 -27.579  16.304  0.00  0.00    +0.150 HD
ATOM     39  O   ASN A   4      -7.877 -25.395  15.744  0.00  0.00    -0.273 OA
BRANCH  37  40
ATOM     40  CA  LEU A   5      -7.760 -28.094  16.331  0.00  0.00    +0.149 C 
BRANCH  40  41
ATOM     41  C   LEU A   5      -7.879 -28.533  17.786  0.00  0.00    +0.241 C 
ATOM     42  N   LEU A   6      -8.967 -28.140  18.434  0.00  0.00    -0.297 N 
ATOM     43  H   LEU A   6      -9.754 -27.728  17.894  0.00  0.00    +0.150 HD
ATOM     44  O   LEU A   5      -6.996 -29.198  18.311  0.00  0.00    -0.273 OA
BRANCH  42  45
ATOM     45  CA  LEU A   6      -9.093 -28.269  19.888  0.00  0.00    +0.149 C 
BRANCH  45  46
ATOM     46  C   LEU A   6     -10.122 -29.312  20.312  0.00  0.00    +0.241 C 
ATOM     47  N   ILE A   7      -9.743 -30.139  21.282  0.00  0.00    -0.297 N 
ATOM     48  H   ILE A   7      -8.814 -29.996  21.728  0.00  0.00    +0.150 HD
ATOM     49  O   LEU A   6     -11.232 -29.358  19.782  0.00  0.00    -0.273 OA
BRANCH  47  50
ATOM     50  CA  ILE A   7     -10.584 -31.240  21.743  0.00  0.00    +0.149 C 
BRANCH  50  51
ATOM     51  C   ILE A   7     -11.084 -31.012  23.168  0.00  0.00    +0.241 C 
ATOM     52  O   ILE A   7     -10.461 -30.281  23.940  0.00  0.00    -0.273 OA
ATOM     53  N   ASN A   8     -12.214 -31.621  23.515  0.00  0.00    -0.298 N 
ATOM     54  H   ASN A   8     -12.784 -32.102  22.790  0.00  0.00    +0.150 HD
BRANCH  53  55
ATOM     55  CA  ASN A   8     -12.663 -31.620  24.913  0.00  0.00    +0.146 C 
BRANCH  55  56
ATOM     56  C   ASN A   8     -12.838 -33.037  25.468  0.00  0.00    +0.227 C 
ATOM     57  O   ASN A   8     -12.604 -34.007  24.751  0.00  0.00    -0.286 OA
ENDBRANCH  55  56
BRANCH  55  58
ATOM     58  CB  ASN A   8     -13.920 -30.752  25.105  0.00  0.00    +0.112 C 
BRANCH  58  59
ATOM     59  CG  ASN A   8     -15.160 -31.331  24.429  0.00  0.00    +0.222 C 
ATOM     60  ND2 ASN A   8     -16.149 -30.475  24.200  0.00  0.00    -0.329 N 
ATOM     61 HD21 ASN A   8     -16.042 -29.474  24.463  0.00  0.00    +0.145 HD
ATOM     62 HD22 ASN A   8     -17.031 -30.805  23.758  0.00  0.00    +0.145 HD
ATOM     63  OD1 ASN A   8     -15.238 -32.527  24.136  0.00  0.00    -0.275 OA
ENDBRANCH  58  59
ENDBRANCH  55  58
ENDBRANCH  53  55
ENDBRANCH  50  51
BRANCH  50  64
ATOM     64  CB  ILE A   7      -9.844 -32.609  21.651  0.00  0.00    +0.027 C 
ATOM     65  CG2 ILE A   7      -9.557 -32.973  20.199  0.00  0.00    +0.002 C 
BRANCH  64  66
ATOM     66  CG1 ILE A   7      -8.540 -32.598  22.469  0.00  0.00    +0.002 C 
ATOM     67  CD1 ILE A   7      -7.892 -33.972  22.626  0.00  0.00    +0.000 C 
ENDBRANCH  64  66
ENDBRANCH  50  64
ENDBRANCH  47  50
ENDBRANCH  45  46
BRANCH  45  68
ATOM     68  CB  LEU A   6      -9.428 -26.910  20.506  0.00  0.00    +0.029 C 
BRANCH  68  69
ATOM     69  CG  LEU A   6      -8.511 -25.724  20.173  0.00  0.00    +0.002 C 
ATOM     70  CD2 LEU A   6      -8.993 -24.482  20.893  0.00  0.00    +0.000 C 
ATOM     71  CD1 LEU A   6      -7.046 -26.013  20.522  0.00  0.00    +0.000 C 
ENDBRANCH  68  69
ENDBRANCH  45  68
ENDBRANCH  42  45
ENDBRANCH  40  41
BRANCH  40  72
ATOM     72  CB  LEU A   5      -7.614 -29.288  15.387  0.00  0.00    +0.029 C 
BRANCH  72  73
ATOM     73  CG  LEU A   5      -7.333 -28.960  13.908  0.00  0.00    +0.002 C 
ATOM     74  CD2 LEU A   5      -8.420 -28.065  13.319  0.00  0.00    +0.000 C 
ATOM     75  CD1 LEU A   5      -7.203 -30.231  13.086  0.00  0.00    +0.000 C 
ENDBRANCH  72  73
ENDBRANCH  40  72
ENDBRANCH  37  40
ENDBRANCH   1  36
BRANCH   1  76
ATOM     76  CB  ASN A   4      -5.537 -24.226  14.575  0.00  0.00    +0.114 C 
BRANCH  76  77
ATOM     77  CG  ASN A   4      -4.544 -23.080  14.578  0.00  0.00    +0.222 C 
ATOM     78  OD1 ASN A   4      -4.076 -22.639  15.633  0.00  0.00    -0.275 OA
ATOM     79  ND2 ASN A   4      -4.224 -22.580  13.392  0.00  0.00    -0.329 N 
ATOM     80 HD21 ASN A   4      -3.555 -21.786  13.326  0.00  0.00    +0.145 HD
ATOM     81 HD22 ASN A   4      -4.642 -22.982  12.528  0.00  0.00    +0.145 HD
ENDBRANCH  76  77
ENDBRANCH   1  76
TORSDOF 33
REMARK  Name = ../refined-set-2016/4eor/4eor_pocket.pdb
REMARK  229 active torsions:
REMARK  status: ('A' for Active; 'I' for Inactive)
REMARK    1  A    between atoms: _1  and  _3
REMARK    2  A    between atoms: _3  and  _4
REMARK    3  A    between atoms: _3  and  _6
REMARK    4  A    between atoms: _6  and  _7
REMARK    5  A    between atoms: _7  and  _8
REMARK    6  A    between atoms: _11  and  _13
REMARK    7  A    between atoms: _13  and  _14
REMARK    8  A    between atoms: _13  and  _16
REMARK    9  A    between atoms: _16  and  _17
REMARK   10  A    between atoms: _17  and  _18
REMARK   11  A    between atoms: _18  and  _19
REMARK   12  A    between atoms: _19  and  _20
REMARK   13  A    between atoms: _24  and  _26
REMARK   14  A    between atoms: _26  and  _27
REMARK   15  A    between atoms: _26  and  _29
REMARK   16  A    between atoms: _29  and  _30
REMARK   17  A    between atoms: _33  and  _35
REMARK   18  A    between atoms: _35  and  _36
REMARK   19  A    between atoms: _38  and  _40
REMARK   20  A    between atoms: _40  and  _41
REMARK   21  A    between atoms: _40  and  _43
REMARK   22  A    between atoms: _43  and  _44
REMARK   23  A    between atoms: _44  and  _45
REMARK   24  A    between atoms: _48  and  _50
REMARK   25  A    between atoms: _50  and  _51
REMARK   26  A    between atoms: _53  and  _55
REMARK   27  A    between atoms: _55  and  _56
REMARK   28  A    between atoms: _55  and  _58
REMARK   29  A    between atoms: _58  and  _59
REMARK   30  A    between atoms: _62  and  _64
REMARK   31  A    between atoms: _64  and  _65
REMARK   32  A    between atoms: _64  and  _67
REMARK   33  A    between atoms: _67  and  _68
REMARK   34  A    between atoms: _73  and  _74
REMARK   35  A    between atoms: _76  and  _78
REMARK   36  A    between atoms: _78  and  _79
REMARK   37  A    between atoms: _81  and  _83
REMARK   38  A    between atoms: _83  and  _84
REMARK   39  A    between atoms: _83  and  _86
REMARK   40  A    between atoms: _89  and  _91
REMARK   41  A    between atoms: _91  and  _92
REMARK   42  A    between atoms: _91  and  _94
REMARK   43  A    between atoms: _97  and  _99
REMARK   44  A    between atoms: _99  and  _100
REMARK   45  A    between atoms: _99  and  _102
REMARK   46  A    between atoms: _102  and  _103
REMARK   47  A    between atoms: _108  and  _109
REMARK   48  A    between atoms: _111  and  _113
REMARK   49  A    between atoms: _113  and  _114
REMARK   50  A    between atoms: _113  and  _116
REMARK   51  A    between atoms: _116  and  _117
REMARK   52  A    between atoms: _117  and  _118
REMARK   53  A    between atoms: _118  and  _119
REMARK   54  A    between atoms: _119  and  _120
REMARK   55  A    between atoms: _124  and  _126
REMARK   56  A    between atoms: _126  and  _127
REMARK   57  A    between atoms: _126  and  _129
REMARK   58  A    between atoms: _132  and  _134
REMARK   59  A    between atoms: _134  and  _135
REMARK   60  A    between atoms: _134  and  _137
REMARK   61  A    between atoms: _140  and  _142
REMARK   62  A    between atoms: _142  and  _143
REMARK   63  A    between atoms: _146  and  _148
REMARK   64  A    between atoms: _148  and  _149
REMARK   65  A    between atoms: _148  and  _151
REMARK   66  A    between atoms: _151  and  _152
REMARK   67  A    between atoms: _155  and  _157
REMARK   68  A    between atoms: _157  and  _158
REMARK   69  A    between atoms: _157  and  _160
REMARK   70  A    between atoms: _160  and  _161
REMARK   71  A    between atoms: _161  and  _162
REMARK   72  A    between atoms: _162  and  _163
REMARK   73  A    between atoms: _163  and  _164
REMARK   74  A    between atoms: _168  and  _170
REMARK   75  A    between atoms: _170  and  _171
REMARK   76  A    between atoms: _170  and  _173
REMARK   77  A    between atoms: _173  and  _174
REMARK   78  A    between atoms: _174  and  _175
REMARK   79  A    between atoms: _178  and  _180
REMARK   80  A    between atoms: _180  and  _181
REMARK   81  A    between atoms: _180  and  _183
REMARK   82  A    between atoms: _183  and  _184
REMARK   83  A    between atoms: _187  and  _189
REMARK   84  A    between atoms: _189  and  _190
REMARK   85  A    between atoms: _189  and  _192
REMARK   86  A    between atoms: _195  and  _197
REMARK   87  A    between atoms: _197  and  _198
REMARK   88  A    between atoms: _197  and  _200
REMARK   89  A    between atoms: _200  and  _201
REMARK   90  A    between atoms: _201  and  _202
REMARK   91  A    between atoms: _202  and  _203
REMARK   92  A    between atoms: _203  and  _204
REMARK   93  A    between atoms: _208  and  _210
REMARK   94  A    between atoms: _210  and  _211
REMARK   95  A    between atoms: _210  and  _213
REMARK   96  A    between atoms: _213  and  _214
REMARK   97  A    between atoms: _217  and  _219
REMARK   98  A    between atoms: _219  and  _220
REMARK   99  A    between atoms: _219  and  _222
REMARK  100  A    between atoms: _222  and  _223
REMARK  101  A    between atoms: _226  and  _228
REMARK  102  A    between atoms: _228  and  _229
REMARK  103  A    between atoms: _228  and  _231
REMARK  104  A    between atoms: _231  and  _232
REMARK  105  A    between atoms: _235  and  _237
REMARK  106  A    between atoms: _237  and  _238
REMARK  107  A    between atoms: _237  and  _240
REMARK  108  A    between atoms: _243  and  _245
REMARK  109  A    between atoms: _245  and  _246
REMARK  110  A    between atoms: _245  and  _248
REMARK  111  A    between atoms: _248  and  _249
REMARK  112  A    between atoms: _255  and  _257
REMARK  113  A    between atoms: _257  and  _258
REMARK  114  A    between atoms: _257  and  _260
REMARK  115  A    between atoms: _260  and  _261
REMARK  116  A    between atoms: _261  and  _262
REMARK  117  A    between atoms: _265  and  _267
REMARK  118  A    between atoms: _267  and  _268
REMARK  119  A    between atoms: _267  and  _270
REMARK  120  A    between atoms: _270  and  _271
REMARK  121  A    between atoms: _277  and  _279
REMARK  122  A    between atoms: _279  and  _280
REMARK  123  A    between atoms: _279  and  _282
REMARK  124  A    between atoms: _282  and  _283
REMARK  125  A    between atoms: _286  and  _288
REMARK  126  A    between atoms: _288  and  _289
REMARK  127  A    between atoms: _288  and  _291
REMARK  128  A    between atoms: _291  and  _292
REMARK  129  A    between atoms: _297  and  _299
REMARK  130  A    between atoms: _299  and  _300
REMARK  131  A    between atoms: _299  and  _302
REMARK  132  A    between atoms: _302  and  _303
REMARK  133  A    between atoms: _303  and  _304
REMARK  134  A    between atoms: _309  and  _311
REMARK  135  A    between atoms: _311  and  _312
REMARK  136  A    between atoms: _311  and  _314
REMARK  137  A    between atoms: _314  and  _315
REMARK  138  A    between atoms: _318  and  _320
REMARK  139  A    between atoms: _320  and  _321
REMARK  140  A    between atoms: _320  and  _323
REMARK  141  A    between atoms: _323  and  _324
REMARK  142  A    between atoms: _327  and  _329
REMARK  143  A    between atoms: _329  and  _330
REMARK  144  A    between atoms: _329  and  _332
REMARK  145  A    between atoms: _332  and  _333
REMARK  146  A    between atoms: _333  and  _334
REMARK  147  A    between atoms: _334  and  _335
REMARK  148  A    between atoms: _335  and  _336
REMARK  149  A    between atoms: _340  and  _342
REMARK  150  A    between atoms: _342  and  _343
REMARK  151  A    between atoms: _342  and  _345
REMARK  152  A    between atoms: _345  and  _346
REMARK  153  A    between atoms: _346  and  _347
REMARK  154  A    between atoms: _347  and  _348
REMARK  155  A    between atoms: _348  and  _349
REMARK  156  A    between atoms: _353  and  _355
REMARK  157  A    between atoms: _355  and  _356
REMARK  158  A    between atoms: _355  and  _358
REMARK  159  A    between atoms: _358  and  _359
REMARK  160  A    between atoms: _365  and  _367
REMARK  161  A    between atoms: _367  and  _368
REMARK  162  A    between atoms: _367  and  _370
REMARK  163  A    between atoms: _370  and  _371
REMARK  164  A    between atoms: _376  and  _378
REMARK  165  A    between atoms: _378  and  _379
REMARK  166  A    between atoms: _378  and  _381
REMARK  167  A    between atoms: _381  and  _382
REMARK  168  A    between atoms: _385  and  _387
REMARK  169  A    between atoms: _387  and  _388
REMARK  170  A    between atoms: _387  and  _390
REMARK  171  A    between atoms: _390  and  _391
REMARK  172  A    between atoms: _391  and  _392
REMARK  173  A    between atoms: _392  and  _393
REMARK  174  A    between atoms: _393  and  _394
REMARK  175  A    between atoms: _399  and  _400
REMARK  176  A    between atoms: _405  and  _407
REMARK  177  A    between atoms: _407  and  _408
REMARK  178  A    between atoms: _407  and  _410
REMARK  179  A    between atoms: _410  and  _411
REMARK  180  A    between atoms: _411  and  _412
REMARK  181  A    between atoms: _417  and  _419
REMARK  182  A    between atoms: _419  and  _420
REMARK  183  A    between atoms: _419  and  _422
REMARK  184  A    between atoms: _422  and  _423
REMARK  185  A    between atoms: _428  and  _430
REMARK  186  A    between atoms: _430  and  _431
REMARK  187  A    between atoms: _430  and  _433
REMARK  188  A    between atoms: _433  and  _434
REMARK  189  A    between atoms: _437  and  _439
REMARK  190  A    between atoms: _439  and  _440
REMARK  191  A    between atoms: _439  and  _442
REMARK  192  A    between atoms: _442  and  _443
REMARK  193  A    between atoms: _446  and  _448
REMARK  194  A    between atoms: _448  and  _449
REMARK  195  A    between atoms: _448  and  _451
REMARK  196  A    between atoms: _451  and  _452
REMARK  197  A    between atoms: _455  and  _457
REMARK  198  A    between atoms: _457  and  _458
REMARK  199  A    between atoms: _457  and  _460
REMARK  200  A    between atoms: _460  and  _461
REMARK  201  A    between atoms: _466  and  _468
REMARK  202  A    between atoms: _468  and  _469
REMARK  203  A    between atoms: _468  and  _471
REMARK  204  A    between atoms: _471  and  _472
REMARK  205  A    between atoms: _472  and  _473
REMARK  206  A    between atoms: _473  and  _474
REMARK  207  A    between atoms: _474  and  _475
REMARK  208  A    between atoms: _479  and  _481
REMARK  209  A    between atoms: _481  and  _482
REMARK  210  A    between atoms: _481  and  _484
REMARK  211  A    between atoms: _484  and  _485
REMARK  212  A    between atoms: _488  and  _490
REMARK  213  A    between atoms: _490  and  _491
REMARK  214  A    between atoms: _494  and  _496
REMARK  215  A    between atoms: _496  and  _497
REMARK  216  A    between atoms: _496  and  _499
REMARK  217  A    between atoms: _499  and  _500
REMARK  218  A    between atoms: _503  and  _505
REMARK  219  A    between atoms: _505  and  _506
REMARK  220  A    between atoms: _505  and  _508
REMARK  221  A    between atoms: _508  and  _509
REMARK  222  A    between atoms: _515  and  _517
REMARK  223  A    between atoms: _517  and  _518
REMARK  224  A    between atoms: _520  and  _522
REMARK  225  A    between atoms: _522  and  _523
REMARK  226  A    between atoms: _522  and  _525
REMARK  227  A    between atoms: _525  and  _526
REMARK  228  A    between atoms: _526  and  _527
REMARK  229  A    between atoms: _527  and  _528
REMARK                            x       y       z     vdW  Elec       q    Type
REMARK                         _______ _______ _______ _____ _____    ______ ____
ROOT
ATOM      1  C   ALA A   3      -8.938 -21.697  15.603  0.00  0.00    +0.241 C 
ATOM      2  N   ASP A   4      -8.629 -20.537  16.177  0.00  0.00    -0.297 N 
ATOM      3  H   ASP A   4      -9.045 -20.338  17.109  0.00  0.00    +0.150 HD
ATOM      4  O   ALA A   3      -8.446 -22.103  14.542  0.00  0.00    -0.273 OA
ENDROOT
BRANCH   1   5
ATOM      5  CA  ALA A   3      -9.975 -22.533  16.356  0.00  0.00    +0.149 C 
ATOM      6  CB  ALA A   3      -9.466 -22.898  17.736  0.00  0.00    +0.031 C 
BRANCH   5   9
ATOM      7  C   LEU A   2     -11.585 -24.120  15.451  0.00  0.00    +0.241 C 
ATOM      8  O   LEU A   2     -12.544 -23.529  15.944  0.00  0.00    -0.273 OA
ATOM      9  N   ALA A   3     -10.325 -23.731  15.610  0.00  0.00    -0.297 N 
ATOM     10  H   ALA A   3      -9.565 -24.301  15.188  0.00  0.00    +0.150 HD
BRANCH   7  11
ATOM     11  CA  LEU A   2     -11.789 -25.380  14.618  0.00  0.00    +0.149 C 
BRANCH  11  14
ATOM     12  C   LYS A   1     -12.276 -27.020  16.369  0.00  0.00    +0.238 C 
ATOM     13  O   LYS A   1     -11.111 -27.044  16.777  0.00  0.00    -0.274 OA
ATOM     14  N   LEU A   2     -12.675 -26.303  15.319  0.00  0.00    -0.297 N 
ATOM     15  H   LEU A   2     -13.655 -26.405  14.987  0.00  0.00    +0.150 HD
BRANCH  12  16
ATOM     16  CA  LYS A   1     -13.360 -27.839  17.064  0.00  0.00    +0.145 C 
BRANCH  16  17
ATOM     17  N   LYS A   1     -12.869 -29.143  17.528  0.00  0.00    -0.238 NA
ATOM     18  H   LYS A   1     -11.922 -29.206  17.953  0.00  0.00    +0.142 HD
ENDBRANCH  16  17
BRANCH  16  19
ATOM     19  CB  LYS A   1     -13.955 -27.033  18.230  0.00  0.00    +0.026 C 
BRANCH  19  20
ATOM     20  CG  LYS A   1     -15.031 -27.777  19.021  0.00  0.00    -0.000 C 
BRANCH  20  21
ATOM     21  CD  LYS A   1     -15.787 -26.886  19.978  0.00  0.00    -0.024 C 
BRANCH  21  22
ATOM     22  CE  LYS A   1     -16.694 -27.717  20.889  0.00  0.00    -0.086 C 
BRANCH  22  23
ATOM     23  NZ  LYS A   1     -17.822 -26.920  21.438  0.00  0.00    +0.380 N 
ATOM     24  HZ1 LYS A   1     -18.408 -27.525  22.048  0.00  0.00    -0.089 HD
ATOM     25  HZ2 LYS A   1     -17.445 -26.126  21.994  0.00  0.00    -0.089 HD
ATOM     26  HZ3 LYS A   1     -18.399 -26.553  20.655  0.00  0.00    -0.089 HD
ENDBRANCH  22  23
ENDBRANCH  21  22
ENDBRANCH  20  21
ENDBRANCH  19  20
ENDBRANCH  16  19
ENDBRANCH  12  16
ENDBRANCH  11  14
BRANCH  11  27
ATOM     27  CB  LEU A   2     -12.344 -25.009  13.234  0.00  0.00    +0.029 C 
BRANCH  27  28
ATOM     28  CG  LEU A   2     -12.780 -26.123  12.273  0.00  0.00    +0.002 C 
ATOM     29  CD2 LEU A   2     -11.626 -27.017  11.901  0.00  0.00    +0.000 C 
ATOM     30  CD1 LEU A   2     -13.396 -25.538  11.023  0.00  0.00    +0.000 C 
ENDBRANCH  27  28
ENDBRANCH  11  27
ENDBRANCH   7  11
ENDBRANCH   5   9
ENDBRANCH   1   5
BRANCH   2  31
ATOM     31  CA  ASP A   4      -7.752 -19.522  15.601  0.00  0.00    +0.160 C 
BRANCH  31  32
ATOM     32  C   ASP A   4      -8.140 -19.106  14.178  0.00  0.00    +0.241 C 
ATOM     33  N   PHE A   5      -9.165 -18.266  14.102  0.00  0.00    -0.297 N 
ATOM     34  H   PHE A   5      -9.640 -17.985  14.983  0.00  0.00    +0.150 HD
ATOM     35  O   ASP A   4      -7.530 -19.529  13.198  0.00  0.00    -0.273 OA
BRANCH  33  36
ATOM     36  CA  PHE A   5      -9.656 -17.720  12.849  0.00  0.00    +0.153 C 
BRANCH  36  37
ATOM     37  C   PHE A   5      -8.971 -16.392  12.485  0.00  0.00    +0.241 C 
ATOM     38  N   GLY A   6      -7.789 -16.156  13.054  0.00  0.00    -0.296 N 
ATOM     39  H   GLY A   6      -7.401 -16.861  13.713  0.00  0.00    +0.150 HD
ATOM     40  O   PHE A   5      -9.499 -15.609  11.692  0.00  0.00    -0.273 OA
BRANCH  38  41
ATOM     41  CA  GLY A   6      -7.015 -14.941  12.787  0.00  0.00    +0.163 C 
BRANCH  41  42
ATOM     42  C   GLY A   6      -6.517 -14.834  11.355  0.00  0.00    +0.229 C 
ATOM     43  O   GLY A   6      -6.291 -13.734  10.844  0.00  0.00    -0.286 OA
ENDBRANCH  41  42
ENDBRANCH  38  41
ENDBRANCH  36  37
BRANCH  36  44
ATOM     44  CB  PHE A   5     -11.180 -17.563  12.930  0.00  0.00    +0.055 C 
BRANCH  44  45
ATOM     45  CG  PHE A   5     -11.931 -18.835  12.650  0.00  0.00    -0.020 A 
ATOM     46  CD2 PHE A   5     -11.984 -19.856  13.595  0.00  0.00    -0.004 A 
ATOM     47  CE2 PHE A   5     -12.672 -21.037  13.325  0.00  0.00    -0.000 A 
ATOM     48  CZ  PHE A   5     -13.310 -21.201  12.102  0.00  0.00    -0.000 A 
ATOM     49  CE1 PHE A   5     -13.252 -20.191  11.152  0.00  0.00    -0.000 A 
ATOM     50  CD1 PHE A   5     -12.568 -19.020  11.427  0.00  0.00    -0.004 A 
ENDBRANCH  44  45
ENDBRANCH  36  44
ENDBRANCH  33  36
ENDBRANCH  31  32
BRANCH  31  51
ATOM     51  CB  ASP A   4      -6.269 -19.904  15.699  0.00  0.00    +0.143 C 
BRANCH  51  52
ATOM     52  CG  ASP A   4      -5.350 -18.682  15.650  0.00  0.00    +0.367 C 
ATOM     53  OD2 ASP A   4      -4.139 -18.833  15.938  0.00  0.00    -0.246 OA
ATOM     54  OD1 ASP A   4      -5.835 -17.564  15.337  0.00  0.00    -0.246 OA
ENDBRANCH  51  52
ENDBRANCH  31  51
ENDBRANCH   2  31
TORSDOF 23
REMARK  Name = ../refined-set-2016/4eor/4eor_pocket.pdb
REMARK  229 active torsions:
REMARK  status: ('A' for Active; 'I' for Inactive)
REMARK    1  A    between atoms: _1  and  _3
REMARK    2  A    between atoms: _3  and  _4
REMARK    3  A    between atoms: _3  and  _6
REMARK    4  A    between atoms: _6  and  _7
REMARK    5  A    between atoms: _7  and  _8
REMARK    6  A    between atoms: _11  and  _13
REMARK    7  A    between atoms: _13  and  _14
REMARK    8  A    between atoms: _13  and  _16
REMARK    9  A    between atoms: _16  and  _17
REMARK   10  A    between atoms: _17  and  _18
REMARK   11  A    between atoms: _18  and  _19
REMARK   12  A    between atoms: _19  and  _20
REMARK   13  A    between atoms: _24  and  _26
REMARK   14  A    between atoms: _26  and  _27
REMARK   15  A    between atoms: _26  and  _29
REMARK   16  A    between atoms: _29  and  _30
REMARK   17  A    between atoms: _33  and  _35
REMARK   18  A    between atoms: _35  and  _36
REMARK   19  A    between atoms: _38  and  _40
REMARK   20  A    between atoms: _40  and  _41
REMARK   21  A    between atoms: _40  and  _43
REMARK   22  A    between atoms: _43  and  _44
REMARK   23  A    between atoms: _44  and  _45
REMARK   24  A    between atoms: _48  and  _50
REMARK   25  A    between atoms: _50  and  _51
REMARK   26  A    between atoms: _53  and  _55
REMARK   27  A    between atoms: _55  and  _56
REMARK   28  A    between atoms: _55  and  _58
REMARK   29  A    between atoms: _58  and  _59
REMARK   30  A    between atoms: _62  and  _64
REMARK   31  A    between atoms: _64  and  _65
REMARK   32  A    between atoms: _64  and  _67
REMARK   33  A    between atoms: _67  and  _68
REMARK   34  A    between atoms: _73  and  _74
REMARK   35  A    between atoms: _76  and  _78
REMARK   36  A    between atoms: _78  and  _79
REMARK   37  A    between atoms: _81  and  _83
REMARK   38  A    between atoms: _83  and  _84
REMARK   39  A    between atoms: _83  and  _86
REMARK   40  A    between atoms: _89  and  _91
REMARK   41  A    between atoms: _91  and  _92
REMARK   42  A    between atoms: _91  and  _94
REMARK   43  A    between atoms: _97  and  _99
REMARK   44  A    between atoms: _99  and  _100
REMARK   45  A    between atoms: _99  and  _102
REMARK   46  A    between atoms: _102  and  _103
REMARK   47  A    between atoms: _108  and  _109
REMARK   48  A    between atoms: _111  and  _113
REMARK   49  A    between atoms: _113  and  _114
REMARK   50  A    between atoms: _113  and  _116
REMARK   51  A    between atoms: _116  and  _117
REMARK   52  A    between atoms: _117  and  _118
REMARK   53  A    between atoms: _118  and  _119
REMARK   54  A    between atoms: _119  and  _120
REMARK   55  A    between atoms: _124  and  _126
REMARK   56  A    between atoms: _126  and  _127
REMARK   57  A    between atoms: _126  and  _129
REMARK   58  A    between atoms: _132  and  _134
REMARK   59  A    between atoms: _134  and  _135
REMARK   60  A    between atoms: _134  and  _137
REMARK   61  A    between atoms: _140  and  _142
REMARK   62  A    between atoms: _142  and  _143
REMARK   63  A    between atoms: _146  and  _148
REMARK   64  A    between atoms: _148  and  _149
REMARK   65  A    between atoms: _148  and  _151
REMARK   66  A    between atoms: _151  and  _152
REMARK   67  A    between atoms: _155  and  _157
REMARK   68  A    between atoms: _157  and  _158
REMARK   69  A    between atoms: _157  and  _160
REMARK   70  A    between atoms: _160  and  _161
REMARK   71  A    between atoms: _161  and  _162
REMARK   72  A    between atoms: _162  and  _163
REMARK   73  A    between atoms: _163  and  _164
REMARK   74  A    between atoms: _168  and  _170
REMARK   75  A    between atoms: _170  and  _171
REMARK   76  A    between atoms: _170  and  _173
REMARK   77  A    between atoms: _173  and  _174
REMARK   78  A    between atoms: _174  and  _175
REMARK   79  A    between atoms: _178  and  _180
REMARK   80  A    between atoms: _180  and  _181
REMARK   81  A    between atoms: _180  and  _183
REMARK   82  A    between atoms: _183  and  _184
REMARK   83  A    between atoms: _187  and  _189
REMARK   84  A    between atoms: _189  and  _190
REMARK   85  A    between atoms: _189  and  _192
REMARK   86  A    between atoms: _195  and  _197
REMARK   87  A    between atoms: _197  and  _198
REMARK   88  A    between atoms: _197  and  _200
REMARK   89  A    between atoms: _200  and  _201
REMARK   90  A    between atoms: _201  and  _202
REMARK   91  A    between atoms: _202  and  _203
REMARK   92  A    between atoms: _203  and  _204
REMARK   93  A    between atoms: _208  and  _210
REMARK   94  A    between atoms: _210  and  _211
REMARK   95  A    between atoms: _210  and  _213
REMARK   96  A    between atoms: _213  and  _214
REMARK   97  A    between atoms: _217  and  _219
REMARK   98  A    between atoms: _219  and  _220
REMARK   99  A    between atoms: _219  and  _222
REMARK  100  A    between atoms: _222  and  _223
REMARK  101  A    between atoms: _226  and  _228
REMARK  102  A    between atoms: _228  and  _229
REMARK  103  A    between atoms: _228  and  _231
REMARK  104  A    between atoms: _231  and  _232
REMARK  105  A    between atoms: _235  and  _237
REMARK  106  A    between atoms: _237  and  _238
REMARK  107  A    between atoms: _237  and  _240
REMARK  108  A    between atoms: _243  and  _245
REMARK  109  A    between atoms: _245  and  _246
REMARK  110  A    between atoms: _245  and  _248
REMARK  111  A    between atoms: _248  and  _249
REMARK  112  A    between atoms: _255  and  _257
REMARK  113  A    between atoms: _257  and  _258
REMARK  114  A    between atoms: _257  and  _260
REMARK  115  A    between atoms: _260  and  _261
REMARK  116  A    between atoms: _261  and  _262
REMARK  117  A    between atoms: _265  and  _267
REMARK  118  A    between atoms: _267  and  _268
REMARK  119  A    between atoms: _267  and  _270
REMARK  120  A    between atoms: _270  and  _271
REMARK  121  A    between atoms: _277  and  _279
REMARK  122  A    between atoms: _279  and  _280
REMARK  123  A    between atoms: _279  and  _282
REMARK  124  A    between atoms: _282  and  _283
REMARK  125  A    between atoms: _286  and  _288
REMARK  126  A    between atoms: _288  and  _289
REMARK  127  A    between atoms: _288  and  _291
REMARK  128  A    between atoms: _291  and  _292
REMARK  129  A    between atoms: _297  and  _299
REMARK  130  A    between atoms: _299  and  _300
REMARK  131  A    between atoms: _299  and  _302
REMARK  132  A    between atoms: _302  and  _303
REMARK  133  A    between atoms: _303  and  _304
REMARK  134  A    between atoms: _309  and  _311
REMARK  135  A    between atoms: _311  and  _312
REMARK  136  A    between atoms: _311  and  _314
REMARK  137  A    between atoms: _314  and  _315
REMARK  138  A    between atoms: _318  and  _320
REMARK  139  A    between atoms: _320  and  _321
REMARK  140  A    between atoms: _320  and  _323
REMARK  141  A    between atoms: _323  and  _324
REMARK  142  A    between atoms: _327  and  _329
REMARK  143  A    between atoms: _329  and  _330
REMARK  144  A    between atoms: _329  and  _332
REMARK  145  A    between atoms: _332  and  _333
REMARK  146  A    between atoms: _333  and  _334
REMARK  147  A    between atoms: _334  and  _335
REMARK  148  A    between atoms: _335  and  _336
REMARK  149  A    between atoms: _340  and  _342
REMARK  150  A    between atoms: _342  and  _343
REMARK  151  A    between atoms: _342  and  _345
REMARK  152  A    between atoms: _345  and  _346
REMARK  153  A    between atoms: _346  and  _347
REMARK  154  A    between atoms: _347  and  _348
REMARK  155  A    between atoms: _348  and  _349
REMARK  156  A    between atoms: _353  and  _355
REMARK  157  A    between atoms: _355  and  _356
REMARK  158  A    between atoms: _355  and  _358
REMARK  159  A    between atoms: _358  and  _359
REMARK  160  A    between atoms: _365  and  _367
REMARK  161  A    between atoms: _367  and  _368
REMARK  162  A    between atoms: _367  and  _370
REMARK  163  A    between atoms: _370  and  _371
REMARK  164  A    between atoms: _376  and  _378
REMARK  165  A    between atoms: _378  and  _379
REMARK  166  A    between atoms: _378  and  _381
REMARK  167  A    between atoms: _381  and  _382
REMARK  168  A    between atoms: _385  and  _387
REMARK  169  A    between atoms: _387  and  _388
REMARK  170  A    between atoms: _387  and  _390
REMARK  171  A    between atoms: _390  and  _391
REMARK  172  A    between atoms: _391  and  _392
REMARK  173  A    between atoms: _392  and  _393
REMARK  174  A    between atoms: _393  and  _394
REMARK  175  A    between atoms: _399  and  _400
REMARK  176  A    between atoms: _405  and  _407
REMARK  177  A    between atoms: _407  and  _408
REMARK  178  A    between atoms: _407  and  _410
REMARK  179  A    between atoms: _410  and  _411
REMARK  180  A    between atoms: _411  and  _412
REMARK  181  A    between atoms: _417  and  _419
REMARK  182  A    between atoms: _419  and  _420
REMARK  183  A    between atoms: _419  and  _422
REMARK  184  A    between atoms: _422  and  _423
REMARK  185  A    between atoms: _428  and  _430
REMARK  186  A    between atoms: _430  and  _431
REMARK  187  A    between atoms: _430  and  _433
REMARK  188  A    between atoms: _433  and  _434
REMARK  189  A    between atoms: _437  and  _439
REMARK  190  A    between atoms: _439  and  _440
REMARK  191  A    between atoms: _439  and  _442
REMARK  192  A    between atoms: _442  and  _443
REMARK  193  A    between atoms: _446  and  _448
REMARK  194  A    between atoms: _448  and  _449
REMARK  195  A    between atoms: _448  and  _451
REMARK  196  A    between atoms: _451  and  _452
REMARK  197  A    between atoms: _455  and  _457
REMARK  198  A    between atoms: _457  and  _458
REMARK  199  A    between atoms: _457  and  _460
REMARK  200  A    between atoms: _460  and  _461
REMARK  201  A    between atoms: _466  and  _468
REMARK  202  A    between atoms: _468  and  _469
REMARK  203  A    between atoms: _468  and  _471
REMARK  204  A    between atoms: _471  and  _472
REMARK  205  A    between atoms: _472  and  _473
REMARK  206  A    between atoms: _473  and  _474
REMARK  207  A    between atoms: _474  and  _475
REMARK  208  A    between atoms: _479  and  _481
REMARK  209  A    between atoms: _481  and  _482
REMARK  210  A    between atoms: _481  and  _484
REMARK  211  A    between atoms: _484  and  _485
REMARK  212  A    between atoms: _488  and  _490
REMARK  213  A    between atoms: _490  and  _491
REMARK  214  A    between atoms: _494  and  _496
REMARK  215  A    between atoms: _496  and  _497
REMARK  216  A    between atoms: _496  and  _499
REMARK  217  A    between atoms: _499  and  _500
REMARK  218  A    between atoms: _503  and  _505
REMARK  219  A    between atoms: _505  and  _506
REMARK  220  A    between atoms: _505  and  _508
REMARK  221  A    between atoms: _508  and  _509
REMARK  222  A    between atoms: _515  and  _517
REMARK  223  A    between atoms: _517  and  _518
REMARK  224  A    between atoms: _520  and  _522
REMARK  225  A    between atoms: _522  and  _523
REMARK  226  A    between atoms: _522  and  _525
REMARK  227  A    between atoms: _525  and  _526
REMARK  228  A    between atoms: _526  and  _527
REMARK  229  A    between atoms: _527  and  _528
REMARK                            x       y       z     vdW  Elec       q    Type
REMARK                         _______ _______ _______ _____ _____    ______ ____
ROOT
ATOM      1  NE  ARG A   1      -7.934 -35.121  26.743  0.00  0.00    -0.265 N 
ATOM      2  CZ  ARG A   1      -8.656 -34.011  26.880  0.00  0.00    +0.342 C 
ATOM      3  NH2 ARG A   1      -8.384 -33.152  27.854  0.00  0.00    -0.292 N 
ATOM      4 HH21 ARG A   1      -7.604 -33.345  28.514  0.00  0.00    +0.255 HD
ATOM      5 HH22 ARG A   1      -8.951 -32.286  27.957  0.00  0.00    +0.255 HD
ATOM      6  NH1 ARG A   1      -9.655 -33.759  26.046  0.00  0.00    -0.292 N 
ATOM      7 HH11 ARG A   1     -10.217 -32.891  26.155  0.00  0.00    +0.255 HD
ATOM      8 HH12 ARG A   1      -9.876 -34.429  25.282  0.00  0.00    +0.255 HD
ATOM      9  HE  ARG A   1      -8.179 -35.768  25.967  0.00  0.00    +0.259 HD
ENDROOT
BRANCH   1  10
ATOM     10  CD  ARG A   1      -6.816 -35.490  27.615  0.00  0.00    +0.174 C 
BRANCH  10  11
ATOM     11  CG  ARG A   1      -7.290 -35.929  28.999  0.00  0.00    +0.045 C 
BRANCH  11  12
ATOM     12  CB  ARG A   1      -6.300 -36.865  29.669  0.00  0.00    +0.029 C 
BRANCH  12  13
ATOM     13  CA  ARG A   1      -6.938 -38.101  30.337  0.00  0.00    +0.133 C 
BRANCH  13  14
ATOM     14  N   ARG A   1      -6.871 -39.289  29.464  0.00  0.00    -0.239 NA
ATOM     15  H   ARG A   1      -6.357 -40.117  29.827  0.00  0.00    +0.142 HD
ENDBRANCH  13  14
BRANCH  13  16
ATOM     16  C   ARG A   1      -8.341 -37.790  30.858  0.00  0.00    +0.224 C 
ATOM     17  O   ARG A   1      -8.548 -37.678  32.071  0.00  0.00    -0.287 OA
ENDBRANCH  13  16
ENDBRANCH  12  13
ENDBRANCH  11  12
ENDBRANCH  10  11
ENDBRANCH   1  10
TORSDOF 6
REMARK  Name = ../refined-set-2016/4eor/4eor_pocket.pdb
REMARK  229 active torsions:
REMARK  status: ('A' for Active; 'I' for Inactive)
REMARK    1  A    between atoms: _1  and  _3
REMARK    2  A    between atoms: _3  and  _4
REMARK    3  A    between atoms: _3  and  _6
REMARK    4  A    between atoms: _6  and  _7
REMARK    5  A    between atoms: _7  and  _8
REMARK    6  A    between atoms: _11  and  _13
REMARK    7  A    between atoms: _13  and  _14
REMARK    8  A    between atoms: _13  and  _16
REMARK    9  A    between atoms: _16  and  _17
REMARK   10  A    between atoms: _17  and  _18
REMARK   11  A    between atoms: _18  and  _19
REMARK   12  A    between atoms: _19  and  _20
REMARK   13  A    between atoms: _24  and  _26
REMARK   14  A    between atoms: _26  and  _27
REMARK   15  A    between atoms: _26  and  _29
REMARK   16  A    between atoms: _29  and  _30
REMARK   17  A    between atoms: _33  and  _35
REMARK   18  A    between atoms: _35  and  _36
REMARK   19  A    between atoms: _38  and  _40
REMARK   20  A    between atoms: _40  and  _41
REMARK   21  A    between atoms: _40  and  _43
REMARK   22  A    between atoms: _43  and  _44
REMARK   23  A    between atoms: _44  and  _45
REMARK   24  A    between atoms: _48  and  _50
REMARK   25  A    between atoms: _50  and  _51
REMARK   26  A    between atoms: _53  and  _55
REMARK   27  A    between atoms: _55  and  _56
REMARK   28  A    between atoms: _55  and  _58
REMARK   29  A    between atoms: _58  and  _59
REMARK   30  A    between atoms: _62  and  _64
REMARK   31  A    between atoms: _64  and  _65
REMARK   32  A    between atoms: _64  and  _67
REMARK   33  A    between atoms: _67  and  _68
REMARK   34  A    between atoms: _73  and  _74
REMARK   35  A    between atoms: _76  and  _78
REMARK   36  A    between atoms: _78  and  _79
REMARK   37  A    between atoms: _81  and  _83
REMARK   38  A    between atoms: _83  and  _84
REMARK   39  A    between atoms: _83  and  _86
REMARK   40  A    between atoms: _89  and  _91
REMARK   41  A    between atoms: _91  and  _92
REMARK   42  A    between atoms: _91  and  _94
REMARK   43  A    between atoms: _97  and  _99
REMARK   44  A    between atoms: _99  and  _100
REMARK   45  A    between atoms: _99  and  _102
REMARK   46  A    between atoms: _102  and  _103
REMARK   47  A    between atoms: _108  and  _109
REMARK   48  A    between atoms: _111  and  _113
REMARK   49  A    between atoms: _113  and  _114
REMARK   50  A    between atoms: _113  and  _116
REMARK   51  A    between atoms: _116  and  _117
REMARK   52  A    between atoms: _117  and  _118
REMARK   53  A    between atoms: _118  and  _119
REMARK   54  A    between atoms: _119  and  _120
REMARK   55  A    between atoms: _124  and  _126
REMARK   56  A    between atoms: _126  and  _127
REMARK   57  A    between atoms: _126  and  _129
REMARK   58  A    between atoms: _132  and  _134
REMARK   59  A    between atoms: _134  and  _135
REMARK   60  A    between atoms: _134  and  _137
REMARK   61  A    between atoms: _140  and  _142
REMARK   62  A    between atoms: _142  and  _143
REMARK   63  A    between atoms: _146  and  _148
REMARK   64  A    between atoms: _148  and  _149
REMARK   65  A    between atoms: _148  and  _151
REMARK   66  A    between atoms: _151  and  _152
REMARK   67  A    between atoms: _155  and  _157
REMARK   68  A    between atoms: _157  and  _158
REMARK   69  A    between atoms: _157  and  _160
REMARK   70  A    between atoms: _160  and  _161
REMARK   71  A    between atoms: _161  and  _162
REMARK   72  A    between atoms: _162  and  _163
REMARK   73  A    between atoms: _163  and  _164
REMARK   74  A    between atoms: _168  and  _170
REMARK   75  A    between atoms: _170  and  _171
REMARK   76  A    between atoms: _170  and  _173
REMARK   77  A    between atoms: _173  and  _174
REMARK   78  A    between atoms: _174  and  _175
REMARK   79  A    between atoms: _178  and  _180
REMARK   80  A    between atoms: _180  and  _181
REMARK   81  A    between atoms: _180  and  _183
REMARK   82  A    between atoms: _183  and  _184
REMARK   83  A    between atoms: _187  and  _189
REMARK   84  A    between atoms: _189  and  _190
REMARK   85  A    between atoms: _189  and  _192
REMARK   86  A    between atoms: _195  and  _197
REMARK   87  A    between atoms: _197  and  _198
REMARK   88  A    between atoms: _197  and  _200
REMARK   89  A    between atoms: _200  and  _201
REMARK   90  A    between atoms: _201  and  _202
REMARK   91  A    between atoms: _202  and  _203
REMARK   92  A    between atoms: _203  and  _204
REMARK   93  A    between atoms: _208  and  _210
REMARK   94  A    between atoms: _210  and  _211
REMARK   95  A    between atoms: _210  and  _213
REMARK   96  A    between atoms: _213  and  _214
REMARK   97  A    between atoms: _217  and  _219
REMARK   98  A    between atoms: _219  and  _220
REMARK   99  A    between atoms: _219  and  _222
REMARK  100  A    between atoms: _222  and  _223
REMARK  101  A    between atoms: _226  and  _228
REMARK  102  A    between atoms: _228  and  _229
REMARK  103  A    between atoms: _228  and  _231
REMARK  104  A    between atoms: _231  and  _232
REMARK  105  A    between atoms: _235  and  _237
REMARK  106  A    between atoms: _237  and  _238
REMARK  107  A    between atoms: _237  and  _240
REMARK  108  A    between atoms: _243  and  _245
REMARK  109  A    between atoms: _245  and  _246
REMARK  110  A    between atoms: _245  and  _248
REMARK  111  A    between atoms: _248  and  _249
REMARK  112  A    between atoms: _255  and  _257
REMARK  113  A    between atoms: _257  and  _258
REMARK  114  A    between atoms: _257  and  _260
REMARK  115  A    between atoms: _260  and  _261
REMARK  116  A    between atoms: _261  and  _262
REMARK  117  A    between atoms: _265  and  _267
REMARK  118  A    between atoms: _267  and  _268
REMARK  119  A    between atoms: _267  and  _270
REMARK  120  A    between atoms: _270  and  _271
REMARK  121  A    between atoms: _277  and  _279
REMARK  122  A    between atoms: _279  and  _280
REMARK  123  A    between atoms: _279  and  _282
REMARK  124  A    between atoms: _282  and  _283
REMARK  125  A    between atoms: _286  and  _288
REMARK  126  A    between atoms: _288  and  _289
REMARK  127  A    between atoms: _288  and  _291
REMARK  128  A    between atoms: _291  and  _292
REMARK  129  A    between atoms: _297  and  _299
REMARK  130  A    between atoms: _299  and  _300
REMARK  131  A    between atoms: _299  and  _302
REMARK  132  A    between atoms: _302  and  _303
REMARK  133  A    between atoms: _303  and  _304
REMARK  134  A    between atoms: _309  and  _311
REMARK  135  A    between atoms: _311  and  _312
REMARK  136  A    between atoms: _311  and  _314
REMARK  137  A    between atoms: _314  and  _315
REMARK  138  A    between atoms: _318  and  _320
REMARK  139  A    between atoms: _320  and  _321
REMARK  140  A    between atoms: _320  and  _323
REMARK  141  A    between atoms: _323  and  _324
REMARK  142  A    between atoms: _327  and  _329
REMARK  143  A    between atoms: _329  and  _330
REMARK  144  A    between atoms: _329  and  _332
REMARK  145  A    between atoms: _332  and  _333
REMARK  146  A    between atoms: _333  and  _334
REMARK  147  A    between atoms: _334  and  _335
REMARK  148  A    between atoms: _335  and  _336
REMARK  149  A    between atoms: _340  and  _342
REMARK  150  A    between atoms: _342  and  _343
REMARK  151  A    between atoms: _342  and  _345
REMARK  152  A    between atoms: _345  and  _346
REMARK  153  A    between atoms: _346  and  _347
REMARK  154  A    between atoms: _347  and  _348
REMARK  155  A    between atoms: _348  and  _349
REMARK  156  A    between atoms: _353  and  _355
REMARK  157  A    between atoms: _355  and  _356
REMARK  158  A    between atoms: _355  and  _358
REMARK  159  A    between atoms: _358  and  _359
REMARK  160  A    between atoms: _365  and  _367
REMARK  161  A    between atoms: _367  and  _368
REMARK  162  A    between atoms: _367  and  _370
REMARK  163  A    between atoms: _370  and  _371
REMARK  164  A    between atoms: _376  and  _378
REMARK  165  A    between atoms: _378  and  _379
REMARK  166  A    between atoms: _378  and  _381
REMARK  167  A    between atoms: _381  and  _382
REMARK  168  A    between atoms: _385  and  _387
REMARK  169  A    between atoms: _387  and  _388
REMARK  170  A    between atoms: _387  and  _390
REMARK  171  A    between atoms: _390  and  _391
REMARK  172  A    between atoms: _391  and  _392
REMARK  173  A    between atoms: _392  and  _393
REMARK  174  A    between atoms: _393  and  _394
REMARK  175  A    between atoms: _399  and  _400
REMARK  176  A    between atoms: _405  and  _407
REMARK  177  A    between atoms: _407  and  _408
REMARK  178  A    between atoms: _407  and  _410
REMARK  179  A    between atoms: _410  and  _411
REMARK  180  A    between atoms: _411  and  _412
REMARK  181  A    between atoms: _417  and  _419
REMARK  182  A    between atoms: _419  and  _420
REMARK  183  A    between atoms: _419  and  _422
REMARK  184  A    between atoms: _422  and  _423
REMARK  185  A    between atoms: _428  and  _430
REMARK  186  A    between atoms: _430  and  _431
REMARK  187  A    between atoms: _430  and  _433
REMARK  188  A    between atoms: _433  and  _434
REMARK  189  A    between atoms: _437  and  _439
REMARK  190  A    between atoms: _439  and  _440
REMARK  191  A    between atoms: _439  and  _442
REMARK  192  A    between atoms: _442  and  _443
REMARK  193  A    between atoms: _446  and  _448
REMARK  194  A    between atoms: _448  and  _449
REMARK  195  A    between atoms: _448  and  _451
REMARK  196  A    between atoms: _451  and  _452
REMARK  197  A    between atoms: _455  and  _457
REMARK  198  A    between atoms: _457  and  _458
REMARK  199  A    between atoms: _457  and  _460
REMARK  200  A    between atoms: _460  and  _461
REMARK  201  A    between atoms: _466  and  _468
REMARK  202  A    between atoms: _468  and  _469
REMARK  203  A    between atoms: _468  and  _471
REMARK  204  A    between atoms: _471  and  _472
REMARK  205  A    between atoms: _472  and  _473
REMARK  206  A    between atoms: _473  and  _474
REMARK  207  A    between atoms: _474  and  _475
REMARK  208  A    between atoms: _479  and  _481
REMARK  209  A    between atoms: _481  and  _482
REMARK  210  A    between atoms: _481  and  _484
REMARK  211  A    between atoms: _484  and  _485
REMARK  212  A    between atoms: _488  and  _490
REMARK  213  A    between atoms: _490  and  _491
REMARK  214  A    between atoms: _494  and  _496
REMARK  215  A    between atoms: _496  and  _497
REMARK  216  A    between atoms: _496  and  _499
REMARK  217  A    between atoms: _499  and  _500
REMARK  218  A    between atoms: _503  and  _505
REMARK  219  A    between atoms: _505  and  _506
REMARK  220  A    between atoms: _505  and  _508
REMARK  221  A    between atoms: _508  and  _509
REMARK  222  A    between atoms: _515  and  _517
REMARK  223  A    between atoms: _517  and  _518
REMARK  224  A    between atoms: _520  and  _522
REMARK  225  A    between atoms: _522  and  _523
REMARK  226  A    between atoms: _522  and  _525
REMARK  227  A    between atoms: _525  and  _526
REMARK  228  A    between atoms: _526  and  _527
REMARK  229  A    between atoms: _527  and  _528
REMARK                            x       y       z     vdW  Elec       q    Type
REMARK                         _______ _______ _______ _____ _____    ______ ____
ROOT
ATOM      1  O   HOH     1      -8.822 -19.371  19.369  0.00  0.00    +0.000 OA
ENDROOT
TORSDOF 0
REMARK  Name = ../refined-set-2016/4eor/4eor_pocket.pdb
REMARK  229 active torsions:
REMARK  status: ('A' for Active; 'I' for Inactive)
REMARK    1  A    between atoms: _1  and  _3
REMARK    2  A    between atoms: _3  and  _4
REMARK    3  A    between atoms: _3  and  _6
REMARK    4  A    between atoms: _6  and  _7
REMARK    5  A    between atoms: _7  and  _8
REMARK    6  A    between atoms: _11  and  _13
REMARK    7  A    between atoms: _13  and  _14
REMARK    8  A    between atoms: _13  and  _16
REMARK    9  A    between atoms: _16  and  _17
REMARK   10  A    between atoms: _17  and  _18
REMARK   11  A    between atoms: _18  and  _19
REMARK   12  A    between atoms: _19  and  _20
REMARK   13  A    between atoms: _24  and  _26
REMARK   14  A    between atoms: _26  and  _27
REMARK   15  A    between atoms: _26  and  _29
REMARK   16  A    between atoms: _29  and  _30
REMARK   17  A    between atoms: _33  and  _35
REMARK   18  A    between atoms: _35  and  _36
REMARK   19  A    between atoms: _38  and  _40
REMARK   20  A    between atoms: _40  and  _41
REMARK   21  A    between atoms: _40  and  _43
REMARK   22  A    between atoms: _43  and  _44
REMARK   23  A    between atoms: _44  and  _45
REMARK   24  A    between atoms: _48  and  _50
REMARK   25  A    between atoms: _50  and  _51
REMARK   26  A    between atoms: _53  and  _55
REMARK   27  A    between atoms: _55  and  _56
REMARK   28  A    between atoms: _55  and  _58
REMARK   29  A    between atoms: _58  and  _59
REMARK   30  A    between atoms: _62  and  _64
REMARK   31  A    between atoms: _64  and  _65
REMARK   32  A    between atoms: _64  and  _67
REMARK   33  A    between atoms: _67  and  _68
REMARK   34  A    between atoms: _73  and  _74
REMARK   35  A    between atoms: _76  and  _78
REMARK   36  A    between atoms: _78  and  _79
REMARK   37  A    between atoms: _81  and  _83
REMARK   38  A    between atoms: _83  and  _84
REMARK   39  A    between atoms: _83  and  _86
REMARK   40  A    between atoms: _89  and  _91
REMARK   41  A    between atoms: _91  and  _92
REMARK   42  A    between atoms: _91  and  _94
REMARK   43  A    between atoms: _97  and  _99
REMARK   44  A    between atoms: _99  and  _100
REMARK   45  A    between atoms: _99  and  _102
REMARK   46  A    between atoms: _102  and  _103
REMARK   47  A    between atoms: _108  and  _109
REMARK   48  A    between atoms: _111  and  _113
REMARK   49  A    between atoms: _113  and  _114
REMARK   50  A    between atoms: _113  and  _116
REMARK   51  A    between atoms: _116  and  _117
REMARK   52  A    between atoms: _117  and  _118
REMARK   53  A    between atoms: _118  and  _119
REMARK   54  A    between atoms: _119  and  _120
REMARK   55  A    between atoms: _124  and  _126
REMARK   56  A    between atoms: _126  and  _127
REMARK   57  A    between atoms: _126  and  _129
REMARK   58  A    between atoms: _132  and  _134
REMARK   59  A    between atoms: _134  and  _135
REMARK   60  A    between atoms: _134  and  _137
REMARK   61  A    between atoms: _140  and  _142
REMARK   62  A    between atoms: _142  and  _143
REMARK   63  A    between atoms: _146  and  _148
REMARK   64  A    between atoms: _148  and  _149
REMARK   65  A    between atoms: _148  and  _151
REMARK   66  A    between atoms: _151  and  _152
REMARK   67  A    between atoms: _155  and  _157
REMARK   68  A    between atoms: _157  and  _158
REMARK   69  A    between atoms: _157  and  _160
REMARK   70  A    between atoms: _160  and  _161
REMARK   71  A    between atoms: _161  and  _162
REMARK   72  A    between atoms: _162  and  _163
REMARK   73  A    between atoms: _163  and  _164
REMARK   74  A    between atoms: _168  and  _170
REMARK   75  A    between atoms: _170  and  _171
REMARK   76  A    between atoms: _170  and  _173
REMARK   77  A    between atoms: _173  and  _174
REMARK   78  A    between atoms: _174  and  _175
REMARK   79  A    between atoms: _178  and  _180
REMARK   80  A    between atoms: _180  and  _181
REMARK   81  A    between atoms: _180  and  _183
REMARK   82  A    between atoms: _183  and  _184
REMARK   83  A    between atoms: _187  and  _189
REMARK   84  A    between atoms: _189  and  _190
REMARK   85  A    between atoms: _189  and  _192
REMARK   86  A    between atoms: _195  and  _197
REMARK   87  A    between atoms: _197  and  _198
REMARK   88  A    between atoms: _197  and  _200
REMARK   89  A    between atoms: _200  and  _201
REMARK   90  A    between atoms: _201  and  _202
REMARK   91  A    between atoms: _202  and  _203
REMARK   92  A    between atoms: _203  and  _204
REMARK   93  A    between atoms: _208  and  _210
REMARK   94  A    between atoms: _210  and  _211
REMARK   95  A    between atoms: _210  and  _213
REMARK   96  A    between atoms: _213  and  _214
REMARK   97  A    between atoms: _217  and  _219
REMARK   98  A    between atoms: _219  and  _220
REMARK   99  A    between atoms: _219  and  _222
REMARK  100  A    between atoms: _222  and  _223
REMARK  101  A    between atoms: _226  and  _228
REMARK  102  A    between atoms: _228  and  _229
REMARK  103  A    between atoms: _228  and  _231
REMARK  104  A    between atoms: _231  and  _232
REMARK  105  A    between atoms: _235  and  _237
REMARK  106  A    between atoms: _237  and  _238
REMARK  107  A    between atoms: _237  and  _240
REMARK  108  A    between atoms: _243  and  _245
REMARK  109  A    between atoms: _245  and  _246
REMARK  110  A    between atoms: _245  and  _248
REMARK  111  A    between atoms: _248  and  _249
REMARK  112  A    between atoms: _255  and  _257
REMARK  113  A    between atoms: _257  and  _258
REMARK  114  A    between atoms: _257  and  _260
REMARK  115  A    between atoms: _260  and  _261
REMARK  116  A    between atoms: _261  and  _262
REMARK  117  A    between atoms: _265  and  _267
REMARK  118  A    between atoms: _267  and  _268
REMARK  119  A    between atoms: _267  and  _270
REMARK  120  A    between atoms: _270  and  _271
REMARK  121  A    between atoms: _277  and  _279
REMARK  122  A    between atoms: _279  and  _280
REMARK  123  A    between atoms: _279  and  _282
REMARK  124  A    between atoms: _282  and  _283
REMARK  125  A    between atoms: _286  and  _288
REMARK  126  A    between atoms: _288  and  _289
REMARK  127  A    between atoms: _288  and  _291
REMARK  128  A    between atoms: _291  and  _292
REMARK  129  A    between atoms: _297  and  _299
REMARK  130  A    between atoms: _299  and  _300
REMARK  131  A    between atoms: _299  and  _302
REMARK  132  A    between atoms: _302  and  _303
REMARK  133  A    between atoms: _303  and  _304
REMARK  134  A    between atoms: _309  and  _311
REMARK  135  A    between atoms: _311  and  _312
REMARK  136  A    between atoms: _311  and  _314
REMARK  137  A    between atoms: _314  and  _315
REMARK  138  A    between atoms: _318  and  _320
REMARK  139  A    between atoms: _320  and  _321
REMARK  140  A    between atoms: _320  and  _323
REMARK  141  A    between atoms: _323  and  _324
REMARK  142  A    between atoms: _327  and  _329
REMARK  143  A    between atoms: _329  and  _330
REMARK  144  A    between atoms: _329  and  _332
REMARK  145  A    between atoms: _332  and  _333
REMARK  146  A    between atoms: _333  and  _334
REMARK  147  A    between atoms: _334  and  _335
REMARK  148  A    between atoms: _335  and  _336
REMARK  149  A    between atoms: _340  and  _342
REMARK  150  A    between atoms: _342  and  _343
REMARK  151  A    between atoms: _342  and  _345
REMARK  152  A    between atoms: _345  and  _346
REMARK  153  A    between atoms: _346  and  _347
REMARK  154  A    between atoms: _347  and  _348
REMARK  155  A    between atoms: _348  and  _349
REMARK  156  A    between atoms: _353  and  _355
REMARK  157  A    between atoms: _355  and  _356
REMARK  158  A    between atoms: _355  and  _358
REMARK  159  A    between atoms: _358  and  _359
REMARK  160  A    between atoms: _365  and  _367
REMARK  161  A    between atoms: _367  and  _368
REMARK  162  A    between atoms: _367  and  _370
REMARK  163  A    between atoms: _370  and  _371
REMARK  164  A    between atoms: _376  and  _378
REMARK  165  A    between atoms: _378  and  _379
REMARK  166  A    between atoms: _378  and  _381
REMARK  167  A    between atoms: _381  and  _382
REMARK  168  A    between atoms: _385  and  _387
REMARK  169  A    between atoms: _387  and  _388
REMARK  170  A    between atoms: _387  and  _390
REMARK  171  A    between atoms: _390  and  _391
REMARK  172  A    between atoms: _391  and  _392
REMARK  173  A    between atoms: _392  and  _393
REMARK  174  A    between atoms: _393  and  _394
REMARK  175  A    between atoms: _399  and  _400
REMARK  176  A    between atoms: _405  and  _407
REMARK  177  A    between atoms: _407  and  _408
REMARK  178  A    between atoms: _407  and  _410
REMARK  179  A    between atoms: _410  and  _411
REMARK  180  A    between atoms: _411  and  _412
REMARK  181  A    between atoms: _417  and  _419
REMARK  182  A    between atoms: _419  and  _420
REMARK  183  A    between atoms: _419  and  _422
REMARK  184  A    between atoms: _422  and  _423
REMARK  185  A    between atoms: _428  and  _430
REMARK  186  A    between atoms: _430  and  _431
REMARK  187  A    between atoms: _430  and  _433
REMARK  188  A    between atoms: _433  and  _434
REMARK  189  A    between atoms: _437  and  _439
REMARK  190  A    between atoms: _439  and  _440
REMARK  191  A    between atoms: _439  and  _442
REMARK  192  A    between atoms: _442  and  _443
REMARK  193  A    between atoms: _446  and  _448
REMARK  194  A    between atoms: _448  and  _449
REMARK  195  A    between atoms: _448  and  _451
REMARK  196  A    between atoms: _451  and  _452
REMARK  197  A    between atoms: _455  and  _457
REMARK  198  A    between atoms: _457  and  _458
REMARK  199  A    between atoms: _457  and  _460
REMARK  200  A    between atoms: _460  and  _461
REMARK  201  A    between atoms: _466  and  _468
REMARK  202  A    between atoms: _468  and  _469
REMARK  203  A    between atoms: _468  and  _471
REMARK  204  A    between atoms: _471  and  _472
REMARK  205  A    between atoms: _472  and  _473
REMARK  206  A    between atoms: _473  and  _474
REMARK  207  A    between atoms: _474  and  _475
REMARK  208  A    between atoms: _479  and  _481
REMARK  209  A    between atoms: _481  and  _482
REMARK  210  A    between atoms: _481  and  _484
REMARK  211  A    between atoms: _484  and  _485
REMARK  212  A    between atoms: _488  and  _490
REMARK  213  A    between atoms: _490  and  _491
REMARK  214  A    between atoms: _494  and  _496
REMARK  215  A    between atoms: _496  and  _497
REMARK  216  A    between atoms: _496  and  _499
REMARK  217  A    between atoms: _499  and  _500
REMARK  218  A    between atoms: _503  and  _505
REMARK  219  A    between atoms: _505  and  _506
REMARK  220  A    between atoms: _505  and  _508
REMARK  221  A    between atoms: _508  and  _509
REMARK  222  A    between atoms: _515  and  _517
REMARK  223  A    between atoms: _517  and  _518
REMARK  224  A    between atoms: _520  and  _522
REMARK  225  A    between atoms: _522  and  _523
REMARK  226  A    between atoms: _522  and  _525
REMARK  227  A    between atoms: _525  and  _526
REMARK  228  A    between atoms: _526  and  _527
REMARK  229  A    between atoms: _527  and  _528
REMARK                            x       y       z     vdW  Elec       q    Type
REMARK                         _______ _______ _______ _____ _____    ______ ____
ROOT
ATOM      1  O   HOH     1      -2.575 -25.097  20.541  0.00  0.00    +0.000 OA
ENDROOT
TORSDOF 0
REMARK  Name = ../refined-set-2016/4eor/4eor_pocket.pdb
REMARK  229 active torsions:
REMARK  status: ('A' for Active; 'I' for Inactive)
REMARK    1  A    between atoms: _1  and  _3
REMARK    2  A    between atoms: _3  and  _4
REMARK    3  A    between atoms: _3  and  _6
REMARK    4  A    between atoms: _6  and  _7
REMARK    5  A    between atoms: _7  and  _8
REMARK    6  A    between atoms: _11  and  _13
REMARK    7  A    between atoms: _13  and  _14
REMARK    8  A    between atoms: _13  and  _16
REMARK    9  A    between atoms: _16  and  _17
REMARK   10  A    between atoms: _17  and  _18
REMARK   11  A    between atoms: _18  and  _19
REMARK   12  A    between atoms: _19  and  _20
REMARK   13  A    between atoms: _24  and  _26
REMARK   14  A    between atoms: _26  and  _27
REMARK   15  A    between atoms: _26  and  _29
REMARK   16  A    between atoms: _29  and  _30
REMARK   17  A    between atoms: _33  and  _35
REMARK   18  A    between atoms: _35  and  _36
REMARK   19  A    between atoms: _38  and  _40
REMARK   20  A    between atoms: _40  and  _41
REMARK   21  A    between atoms: _40  and  _43
REMARK   22  A    between atoms: _43  and  _44
REMARK   23  A    between atoms: _44  and  _45
REMARK   24  A    between atoms: _48  and  _50
REMARK   25  A    between atoms: _50  and  _51
REMARK   26  A    between atoms: _53  and  _55
REMARK   27  A    between atoms: _55  and  _56
REMARK   28  A    between atoms: _55  and  _58
REMARK   29  A    between atoms: _58  and  _59
REMARK   30  A    between atoms: _62  and  _64
REMARK   31  A    between atoms: _64  and  _65
REMARK   32  A    between atoms: _64  and  _67
REMARK   33  A    between atoms: _67  and  _68
REMARK   34  A    between atoms: _73  and  _74
REMARK   35  A    between atoms: _76  and  _78
REMARK   36  A    between atoms: _78  and  _79
REMARK   37  A    between atoms: _81  and  _83
REMARK   38  A    between atoms: _83  and  _84
REMARK   39  A    between atoms: _83  and  _86
REMARK   40  A    between atoms: _89  and  _91
REMARK   41  A    between atoms: _91  and  _92
REMARK   42  A    between atoms: _91  and  _94
REMARK   43  A    between atoms: _97  and  _99
REMARK   44  A    between atoms: _99  and  _100
REMARK   45  A    between atoms: _99  and  _102
REMARK   46  A    between atoms: _102  and  _103
REMARK   47  A    between atoms: _108  and  _109
REMARK   48  A    between atoms: _111  and  _113
REMARK   49  A    between atoms: _113  and  _114
REMARK   50  A    between atoms: _113  and  _116
REMARK   51  A    between atoms: _116  and  _117
REMARK   52  A    between atoms: _117  and  _118
REMARK   53  A    between atoms: _118  and  _119
REMARK   54  A    between atoms: _119  and  _120
REMARK   55  A    between atoms: _124  and  _126
REMARK   56  A    between atoms: _126  and  _127
REMARK   57  A    between atoms: _126  and  _129
REMARK   58  A    between atoms: _132  and  _134
REMARK   59  A    between atoms: _134  and  _135
REMARK   60  A    between atoms: _134  and  _137
REMARK   61  A    between atoms: _140  and  _142
REMARK   62  A    between atoms: _142  and  _143
REMARK   63  A    between atoms: _146  and  _148
REMARK   64  A    between atoms: _148  and  _149
REMARK   65  A    between atoms: _148  and  _151
REMARK   66  A    between atoms: _151  and  _152
REMARK   67  A    between atoms: _155  and  _157
REMARK   68  A    between atoms: _157  and  _158
REMARK   69  A    between atoms: _157  and  _160
REMARK   70  A    between atoms: _160  and  _161
REMARK   71  A    between atoms: _161  and  _162
REMARK   72  A    between atoms: _162  and  _163
REMARK   73  A    between atoms: _163  and  _164
REMARK   74  A    between atoms: _168  and  _170
REMARK   75  A    between atoms: _170  and  _171
REMARK   76  A    between atoms: _170  and  _173
REMARK   77  A    between atoms: _173  and  _174
REMARK   78  A    between atoms: _174  and  _175
REMARK   79  A    between atoms: _178  and  _180
REMARK   80  A    between atoms: _180  and  _181
REMARK   81  A    between atoms: _180  and  _183
REMARK   82  A    between atoms: _183  and  _184
REMARK   83  A    between atoms: _187  and  _189
REMARK   84  A    between atoms: _189  and  _190
REMARK   85  A    between atoms: _189  and  _192
REMARK   86  A    between atoms: _195  and  _197
REMARK   87  A    between atoms: _197  and  _198
REMARK   88  A    between atoms: _197  and  _200
REMARK   89  A    between atoms: _200  and  _201
REMARK   90  A    between atoms: _201  and  _202
REMARK   91  A    between atoms: _202  and  _203
REMARK   92  A    between atoms: _203  and  _204
REMARK   93  A    between atoms: _208  and  _210
REMARK   94  A    between atoms: _210  and  _211
REMARK   95  A    between atoms: _210  and  _213
REMARK   96  A    between atoms: _213  and  _214
REMARK   97  A    between atoms: _217  and  _219
REMARK   98  A    between atoms: _219  and  _220
REMARK   99  A    between atoms: _219  and  _222
REMARK  100  A    between atoms: _222  and  _223
REMARK  101  A    between atoms: _226  and  _228
REMARK  102  A    between atoms: _228  and  _229
REMARK  103  A    between atoms: _228  and  _231
REMARK  104  A    between atoms: _231  and  _232
REMARK  105  A    between atoms: _235  and  _237
REMARK  106  A    between atoms: _237  and  _238
REMARK  107  A    between atoms: _237  and  _240
REMARK  108  A    between atoms: _243  and  _245
REMARK  109  A    between atoms: _245  and  _246
REMARK  110  A    between atoms: _245  and  _248
REMARK  111  A    between atoms: _248  and  _249
REMARK  112  A    between atoms: _255  and  _257
REMARK  113  A    between atoms: _257  and  _258
REMARK  114  A    between atoms: _257  and  _260
REMARK  115  A    between atoms: _260  and  _261
REMARK  116  A    between atoms: _261  and  _262
REMARK  117  A    between atoms: _265  and  _267
REMARK  118  A    between atoms: _267  and  _268
REMARK  119  A    between atoms: _267  and  _270
REMARK  120  A    between atoms: _270  and  _271
REMARK  121  A    between atoms: _277  and  _279
REMARK  122  A    between atoms: _279  and  _280
REMARK  123  A    between atoms: _279  and  _282
REMARK  124  A    between atoms: _282  and  _283
REMARK  125  A    between atoms: _286  and  _288
REMARK  126  A    between atoms: _288  and  _289
REMARK  127  A    between atoms: _288  and  _291
REMARK  128  A    between atoms: _291  and  _292
REMARK  129  A    between atoms: _297  and  _299
REMARK  130  A    between atoms: _299  and  _300
REMARK  131  A    between atoms: _299  and  _302
REMARK  132  A    between atoms: _302  and  _303
REMARK  133  A    between atoms: _303  and  _304
REMARK  134  A    between atoms: _309  and  _311
REMARK  135  A    between atoms: _311  and  _312
REMARK  136  A    between atoms: _311  and  _314
REMARK  137  A    between atoms: _314  and  _315
REMARK  138  A    between atoms: _318  and  _320
REMARK  139  A    between atoms: _320  and  _321
REMARK  140  A    between atoms: _320  and  _323
REMARK  141  A    between atoms: _323  and  _324
REMARK  142  A    between atoms: _327  and  _329
REMARK  143  A    between atoms: _329  and  _330
REMARK  144  A    between atoms: _329  and  _332
REMARK  145  A    between atoms: _332  and  _333
REMARK  146  A    between atoms: _333  and  _334
REMARK  147  A    between atoms: _334  and  _335
REMARK  148  A    between atoms: _335  and  _336
REMARK  149  A    between atoms: _340  and  _342
REMARK  150  A    between atoms: _342  and  _343
REMARK  151  A    between atoms: _342  and  _345
REMARK  152  A    between atoms: _345  and  _346
REMARK  153  A    between atoms: _346  and  _347
REMARK  154  A    between atoms: _347  and  _348
REMARK  155  A    between atoms: _348  and  _349
REMARK  156  A    between atoms: _353  and  _355
REMARK  157  A    between atoms: _355  and  _356
REMARK  158  A    between atoms: _355  and  _358
REMARK  159  A    between atoms: _358  and  _359
REMARK  160  A    between atoms: _365  and  _367
REMARK  161  A    between atoms: _367  and  _368
REMARK  162  A    between atoms: _367  and  _370
REMARK  163  A    between atoms: _370  and  _371
REMARK  164  A    between atoms: _376  and  _378
REMARK  165  A    between atoms: _378  and  _379
REMARK  166  A    between atoms: _378  and  _381
REMARK  167  A    between atoms: _381  and  _382
REMARK  168  A    between atoms: _385  and  _387
REMARK  169  A    between atoms: _387  and  _388
REMARK  170  A    between atoms: _387  and  _390
REMARK  171  A    between atoms: _390  and  _391
REMARK  172  A    between atoms: _391  and  _392
REMARK  173  A    between atoms: _392  and  _393
REMARK  174  A    between atoms: _393  and  _394
REMARK  175  A    between atoms: _399  and  _400
REMARK  176  A    between atoms: _405  and  _407
REMARK  177  A    between atoms: _407  and  _408
REMARK  178  A    between atoms: _407  and  _410
REMARK  179  A    between atoms: _410  and  _411
REMARK  180  A    between atoms: _411  and  _412
REMARK  181  A    between atoms: _417  and  _419
REMARK  182  A    between atoms: _419  and  _420
REMARK  183  A    between atoms: _419  and  _422
REMARK  184  A    between atoms: _422  and  _423
REMARK  185  A    between atoms: _428  and  _430
REMARK  186  A    between atoms: _430  and  _431
REMARK  187  A    between atoms: _430  and  _433
REMARK  188  A    between atoms: _433  and  _434
REMARK  189  A    between atoms: _437  and  _439
REMARK  190  A    between atoms: _439  and  _440
REMARK  191  A    between atoms: _439  and  _442
REMARK  192  A    between atoms: _442  and  _443
REMARK  193  A    between atoms: _446  and  _448
REMARK  194  A    between atoms: _448  and  _449
REMARK  195  A    between atoms: _448  and  _451
REMARK  196  A    between atoms: _451  and  _452
REMARK  197  A    between atoms: _455  and  _457
REMARK  198  A    between atoms: _457  and  _458
REMARK  199  A    between atoms: _457  and  _460
REMARK  200  A    between atoms: _460  and  _461
REMARK  201  A    between atoms: _466  and  _468
REMARK  202  A    between atoms: _468  and  _469
REMARK  203  A    between atoms: _468  and  _471
REMARK  204  A    between atoms: _471  and  _472
REMARK  205  A    between atoms: _472  and  _473
REMARK  206  A    between atoms: _473  and  _474
REMARK  207  A    between atoms: _474  and  _475
REMARK  208  A    between atoms: _479  and  _481
REMARK  209  A    between atoms: _481  and  _482
REMARK  210  A    between atoms: _481  and  _484
REMARK  211  A    between atoms: _484  and  _485
REMARK  212  A    between atoms: _488  and  _490
REMARK  213  A    between atoms: _490  and  _491
REMARK  214  A    between atoms: _494  and  _496
REMARK  215  A    between atoms: _496  and  _497
REMARK  216  A    between atoms: _496  and  _499
REMARK  217  A    between atoms: _499  and  _500
REMARK  218  A    between atoms: _503  and  _505
REMARK  219  A    between atoms: _505  and  _506
REMARK  220  A    between atoms: _505  and  _508
REMARK  221  A    between atoms: _508  and  _509
REMARK  222  A    between atoms: _515  and  _517
REMARK  223  A    between atoms: _517  and  _518
REMARK  224  A    between atoms: _520  and  _522
REMARK  225  A    between atoms: _522  and  _523
REMARK  226  A    between atoms: _522  and  _525
REMARK  227  A    between atoms: _525  and  _526
REMARK  228  A    between atoms: _526  and  _527
REMARK  229  A    between atoms: _527  and  _528
REMARK                            x       y       z     vdW  Elec       q    Type
REMARK                         _______ _______ _______ _____ _____    ______ ____
ROOT
ATOM      1  O   HOH     1      -2.501 -20.679  15.609  0.00  0.00    +0.000 OA
ENDROOT
TORSDOF 0
REMARK  Name = ../refined-set-2016/4eor/4eor_pocket.pdb
REMARK  229 active torsions:
REMARK  status: ('A' for Active; 'I' for Inactive)
REMARK    1  A    between atoms: _1  and  _3
REMARK    2  A    between atoms: _3  and  _4
REMARK    3  A    between atoms: _3  and  _6
REMARK    4  A    between atoms: _6  and  _7
REMARK    5  A    between atoms: _7  and  _8
REMARK    6  A    between atoms: _11  and  _13
REMARK    7  A    between atoms: _13  and  _14
REMARK    8  A    between atoms: _13  and  _16
REMARK    9  A    between atoms: _16  and  _17
REMARK   10  A    between atoms: _17  and  _18
REMARK   11  A    between atoms: _18  and  _19
REMARK   12  A    between atoms: _19  and  _20
REMARK   13  A    between atoms: _24  and  _26
REMARK   14  A    between atoms: _26  and  _27
REMARK   15  A    between atoms: _26  and  _29
REMARK   16  A    between atoms: _29  and  _30
REMARK   17  A    between atoms: _33  and  _35
REMARK   18  A    between atoms: _35  and  _36
REMARK   19  A    between atoms: _38  and  _40
REMARK   20  A    between atoms: _40  and  _41
REMARK   21  A    between atoms: _40  and  _43
REMARK   22  A    between atoms: _43  and  _44
REMARK   23  A    between atoms: _44  and  _45
REMARK   24  A    between atoms: _48  and  _50
REMARK   25  A    between atoms: _50  and  _51
REMARK   26  A    between atoms: _53  and  _55
REMARK   27  A    between atoms: _55  and  _56
REMARK   28  A    between atoms: _55  and  _58
REMARK   29  A    between atoms: _58  and  _59
REMARK   30  A    between atoms: _62  and  _64
REMARK   31  A    between atoms: _64  and  _65
REMARK   32  A    between atoms: _64  and  _67
REMARK   33  A    between atoms: _67  and  _68
REMARK   34  A    between atoms: _73  and  _74
REMARK   35  A    between atoms: _76  and  _78
REMARK   36  A    between atoms: _78  and  _79
REMARK   37  A    between atoms: _81  and  _83
REMARK   38  A    between atoms: _83  and  _84
REMARK   39  A    between atoms: _83  and  _86
REMARK   40  A    between atoms: _89  and  _91
REMARK   41  A    between atoms: _91  and  _92
REMARK   42  A    between atoms: _91  and  _94
REMARK   43  A    between atoms: _97  and  _99
REMARK   44  A    between atoms: _99  and  _100
REMARK   45  A    between atoms: _99  and  _102
REMARK   46  A    between atoms: _102  and  _103
REMARK   47  A    between atoms: _108  and  _109
REMARK   48  A    between atoms: _111  and  _113
REMARK   49  A    between atoms: _113  and  _114
REMARK   50  A    between atoms: _113  and  _116
REMARK   51  A    between atoms: _116  and  _117
REMARK   52  A    between atoms: _117  and  _118
REMARK   53  A    between atoms: _118  and  _119
REMARK   54  A    between atoms: _119  and  _120
REMARK   55  A    between atoms: _124  and  _126
REMARK   56  A    between atoms: _126  and  _127
REMARK   57  A    between atoms: _126  and  _129
REMARK   58  A    between atoms: _132  and  _134
REMARK   59  A    between atoms: _134  and  _135
REMARK   60  A    between atoms: _134  and  _137
REMARK   61  A    between atoms: _140  and  _142
REMARK   62  A    between atoms: _142  and  _143
REMARK   63  A    between atoms: _146  and  _148
REMARK   64  A    between atoms: _148  and  _149
REMARK   65  A    between atoms: _148  and  _151
REMARK   66  A    between atoms: _151  and  _152
REMARK   67  A    between atoms: _155  and  _157
REMARK   68  A    between atoms: _157  and  _158
REMARK   69  A    between atoms: _157  and  _160
REMARK   70  A    between atoms: _160  and  _161
REMARK   71  A    between atoms: _161  and  _162
REMARK   72  A    between atoms: _162  and  _163
REMARK   73  A    between atoms: _163  and  _164
REMARK   74  A    between atoms: _168  and  _170
REMARK   75  A    between atoms: _170  and  _171
REMARK   76  A    between atoms: _170  and  _173
REMARK   77  A    between atoms: _173  and  _174
REMARK   78  A    between atoms: _174  and  _175
REMARK   79  A    between atoms: _178  and  _180
REMARK   80  A    between atoms: _180  and  _181
REMARK   81  A    between atoms: _180  and  _183
REMARK   82  A    between atoms: _183  and  _184
REMARK   83  A    between atoms: _187  and  _189
REMARK   84  A    between atoms: _189  and  _190
REMARK   85  A    between atoms: _189  and  _192
REMARK   86  A    between atoms: _195  and  _197
REMARK   87  A    between atoms: _197  and  _198
REMARK   88  A    between atoms: _197  and  _200
REMARK   89  A    between atoms: _200  and  _201
REMARK   90  A    between atoms: _201  and  _202
REMARK   91  A    between atoms: _202  and  _203
REMARK   92  A    between atoms: _203  and  _204
REMARK   93  A    between atoms: _208  and  _210
REMARK   94  A    between atoms: _210  and  _211
REMARK   95  A    between atoms: _210  and  _213
REMARK   96  A    between atoms: _213  and  _214
REMARK   97  A    between atoms: _217  and  _219
REMARK   98  A    between atoms: _219  and  _220
REMARK   99  A    between atoms: _219  and  _222
REMARK  100  A    between atoms: _222  and  _223
REMARK  101  A    between atoms: _226  and  _228
REMARK  102  A    between atoms: _228  and  _229
REMARK  103  A    between atoms: _228  and  _231
REMARK  104  A    between atoms: _231  and  _232
REMARK  105  A    between atoms: _235  and  _237
REMARK  106  A    between atoms: _237  and  _238
REMARK  107  A    between atoms: _237  and  _240
REMARK  108  A    between atoms: _243  and  _245
REMARK  109  A    between atoms: _245  and  _246
REMARK  110  A    between atoms: _245  and  _248
REMARK  111  A    between atoms: _248  and  _249
REMARK  112  A    between atoms: _255  and  _257
REMARK  113  A    between atoms: _257  and  _258
REMARK  114  A    between atoms: _257  and  _260
REMARK  115  A    between atoms: _260  and  _261
REMARK  116  A    between atoms: _261  and  _262
REMARK  117  A    between atoms: _265  and  _267
REMARK  118  A    between atoms: _267  and  _268
REMARK  119  A    between atoms: _267  and  _270
REMARK  120  A    between atoms: _270  and  _271
REMARK  121  A    between atoms: _277  and  _279
REMARK  122  A    between atoms: _279  and  _280
REMARK  123  A    between atoms: _279  and  _282
REMARK  124  A    between atoms: _282  and  _283
REMARK  125  A    between atoms: _286  and  _288
REMARK  126  A    between atoms: _288  and  _289
REMARK  127  A    between atoms: _288  and  _291
REMARK  128  A    between atoms: _291  and  _292
REMARK  129  A    between atoms: _297  and  _299
REMARK  130  A    between atoms: _299  and  _300
REMARK  131  A    between atoms: _299  and  _302
REMARK  132  A    between atoms: _302  and  _303
REMARK  133  A    between atoms: _303  and  _304
REMARK  134  A    between atoms: _309  and  _311
REMARK  135  A    between atoms: _311  and  _312
REMARK  136  A    between atoms: _311  and  _314
REMARK  137  A    between atoms: _314  and  _315
REMARK  138  A    between atoms: _318  and  _320
REMARK  139  A    between atoms: _320  and  _321
REMARK  140  A    between atoms: _320  and  _323
REMARK  141  A    between atoms: _323  and  _324
REMARK  142  A    between atoms: _327  and  _329
REMARK  143  A    between atoms: _329  and  _330
REMARK  144  A    between atoms: _329  and  _332
REMARK  145  A    between atoms: _332  and  _333
REMARK  146  A    between atoms: _333  and  _334
REMARK  147  A    between atoms: _334  and  _335
REMARK  148  A    between atoms: _335  and  _336
REMARK  149  A    between atoms: _340  and  _342
REMARK  150  A    between atoms: _342  and  _343
REMARK  151  A    between atoms: _342  and  _345
REMARK  152  A    between atoms: _345  and  _346
REMARK  153  A    between atoms: _346  and  _347
REMARK  154  A    between atoms: _347  and  _348
REMARK  155  A    between atoms: _348  and  _349
REMARK  156  A    between atoms: _353  and  _355
REMARK  157  A    between atoms: _355  and  _356
REMARK  158  A    between atoms: _355  and  _358
REMARK  159  A    between atoms: _358  and  _359
REMARK  160  A    between atoms: _365  and  _367
REMARK  161  A    between atoms: _367  and  _368
REMARK  162  A    between atoms: _367  and  _370
REMARK  163  A    between atoms: _370  and  _371
REMARK  164  A    between atoms: _376  and  _378
REMARK  165  A    between atoms: _378  and  _379
REMARK  166  A    between atoms: _378  and  _381
REMARK  167  A    between atoms: _381  and  _382
REMARK  168  A    between atoms: _385  and  _387
REMARK  169  A    between atoms: _387  and  _388
REMARK  170  A    between atoms: _387  and  _390
REMARK  171  A    between atoms: _390  and  _391
REMARK  172  A    between atoms: _391  and  _392
REMARK  173  A    between atoms: _392  and  _393
REMARK  174  A    between atoms: _393  and  _394
REMARK  175  A    between atoms: _399  and  _400
REMARK  176  A    between atoms: _405  and  _407
REMARK  177  A    between atoms: _407  and  _408
REMARK  178  A    between atoms: _407  and  _410
REMARK  179  A    between atoms: _410  and  _411
REMARK  180  A    between atoms: _411  and  _412
REMARK  181  A    between atoms: _417  and  _419
REMARK  182  A    between atoms: _419  and  _420
REMARK  183  A    between atoms: _419  and  _422
REMARK  184  A    between atoms: _422  and  _423
REMARK  185  A    between atoms: _428  and  _430
REMARK  186  A    between atoms: _430  and  _431
REMARK  187  A    between atoms: _430  and  _433
REMARK  188  A    between atoms: _433  and  _434
REMARK  189  A    between atoms: _437  and  _439
REMARK  190  A    between atoms: _439  and  _440
REMARK  191  A    between atoms: _439  and  _442
REMARK  192  A    between atoms: _442  and  _443
REMARK  193  A    between atoms: _446  and  _448
REMARK  194  A    between atoms: _448  and  _449
REMARK  195  A    between atoms: _448  and  _451
REMARK  196  A    between atoms: _451  and  _452
REMARK  197  A    between atoms: _455  and  _457
REMARK  198  A    between atoms: _457  and  _458
REMARK  199  A    between atoms: _457  and  _460
REMARK  200  A    between atoms: _460  and  _461
REMARK  201  A    between atoms: _466  and  _468
REMARK  202  A    between atoms: _468  and  _469
REMARK  203  A    between atoms: _468  and  _471
REMARK  204  A    between atoms: _471  and  _472
REMARK  205  A    between atoms: _472  and  _473
REMARK  206  A    between atoms: _473  and  _474
REMARK  207  A    between atoms: _474  and  _475
REMARK  208  A    between atoms: _479  and  _481
REMARK  209  A    between atoms: _481  and  _482
REMARK  210  A    between atoms: _481  and  _484
REMARK  211  A    between atoms: _484  and  _485
REMARK  212  A    between atoms: _488  and  _490
REMARK  213  A    between atoms: _490  and  _491
REMARK  214  A    between atoms: _494  and  _496
REMARK  215  A    between atoms: _496  and  _497
REMARK  216  A    between atoms: _496  and  _499
REMARK  217  A    between atoms: _499  and  _500
REMARK  218  A    between atoms: _503  and  _505
REMARK  219  A    between atoms: _505  and  _506
REMARK  220  A    between atoms: _505  and  _508
REMARK  221  A    between atoms: _508  and  _509
REMARK  222  A    between atoms: _515  and  _517
REMARK  223  A    between atoms: _517  and  _518
REMARK  224  A    between atoms: _520  and  _522
REMARK  225  A    between atoms: _522  and  _523
REMARK  226  A    between atoms: _522  and  _525
REMARK  227  A    between atoms: _525  and  _526
REMARK  228  A    between atoms: _526  and  _527
REMARK  229  A    between atoms: _527  and  _528
REMARK                            x       y       z     vdW  Elec       q    Type
REMARK                         _______ _______ _______ _____ _____    ______ ____
ROOT
ATOM      1  O   HOH     1      -4.910 -25.180  29.949  0.00  0.00    +0.000 OA
ENDROOT
TORSDOF 0
