REMARK  Name = ../refined-set-2016/5e1s/5e1s_pocket.pdb
REMARK  218 active torsions:
REMARK  status: ('A' for Active; 'I' for Inactive)
REMARK    1  A    between atoms: _1  and  _3
REMARK    2  A    between atoms: _3  and  _4
REMARK    3  A    between atoms: _3  and  _6
REMARK    4  A    between atoms: _6  and  _7
REMARK    5  A    between atoms: _7  and  _8
REMARK    6  A    between atoms: _8  and  _9
REMARK    7  A    between atoms: _18  and  _20
REMARK    8  A    between atoms: _20  and  _21
REMARK    9  A    between atoms: _20  and  _23
REMARK   10  A    between atoms: _24  and  _25
REMARK   11  A    between atoms: _28  and  _30
REMARK   12  A    between atoms: _30  and  _31
REMARK   13  A    between atoms: _30  and  _33
REMARK   14  A    between atoms: _33  and  _34
REMARK   15  A    between atoms: _37  and  _39
REMARK   16  A    between atoms: _39  and  _40
REMARK   17  A    between atoms: _42  and  _44
REMARK   18  A    between atoms: _44  and  _45
REMARK   19  A    between atoms: _44  and  _47
REMARK   20  A    between atoms: _47  and  _48
REMARK   21  A    between atoms: _48  and  _49
REMARK   22  A    between atoms: _54  and  _56
REMARK   23  A    between atoms: _56  and  _57
REMARK   24  A    between atoms: _59  and  _61
REMARK   25  A    between atoms: _61  and  _62
REMARK   26  A    between atoms: _61  and  _64
REMARK   27  A    between atoms: _64  and  _65
REMARK   28  A    between atoms: _67  and  _69
REMARK   29  A    between atoms: _69  and  _70
REMARK   30  A    between atoms: _69  and  _72
REMARK   31  A    between atoms: _72  and  _73
REMARK   32  A    between atoms: _79  and  _81
REMARK   33  A    between atoms: _81  and  _82
REMARK   34  A    between atoms: _84  and  _86
REMARK   35  A    between atoms: _86  and  _87
REMARK   36  A    between atoms: _86  and  _89
REMARK   37  A    between atoms: _89  and  _90
REMARK   38  A    between atoms: _90  and  _91
REMARK   39  A    between atoms: _93  and  _95
REMARK   40  A    between atoms: _95  and  _96
REMARK   41  A    between atoms: _95  and  _98
REMARK   42  A    between atoms: _101  and  _103
REMARK   43  A    between atoms: _103  and  _104
REMARK   44  A    between atoms: _103  and  _106
REMARK   45  A    between atoms: _106  and  _107
REMARK   46  A    between atoms: _112  and  _113
REMARK   47  A    between atoms: _115  and  _117
REMARK   48  A    between atoms: _117  and  _118
REMARK   49  A    between atoms: _117  and  _120
REMARK   50  A    between atoms: _120  and  _121
REMARK   51  A    between atoms: _121  and  _122
REMARK   52  A    between atoms: _125  and  _127
REMARK   53  A    between atoms: _127  and  _128
REMARK   54  A    between atoms: _130  and  _132
REMARK   55  A    between atoms: _132  and  _133
REMARK   56  A    between atoms: _132  and  _135
REMARK   57  A    between atoms: _135  and  _136
REMARK   58  A    between atoms: _136  and  _137
REMARK   59  A    between atoms: _137  and  _138
REMARK   60  A    between atoms: _147  and  _149
REMARK   61  A    between atoms: _149  and  _150
REMARK   62  A    between atoms: _149  and  _152
REMARK   63  A    between atoms: _155  and  _157
REMARK   64  A    between atoms: _157  and  _158
REMARK   65  A    between atoms: _161  and  _163
REMARK   66  A    between atoms: _163  and  _164
REMARK   67  A    between atoms: _163  and  _166
REMARK   68  A    between atoms: _169  and  _171
REMARK   69  A    between atoms: _171  and  _172
REMARK   70  A    between atoms: _171  and  _174
REMARK   71  A    between atoms: _174  and  _175
REMARK   72  A    between atoms: _175  and  _176
REMARK   73  A    between atoms: _176  and  _177
REMARK   74  A    between atoms: _177  and  _178
REMARK   75  A    between atoms: _182  and  _184
REMARK   76  A    between atoms: _184  and  _185
REMARK   77  A    between atoms: _184  and  _187
REMARK   78  A    between atoms: _187  and  _188
REMARK   79  A    between atoms: _191  and  _193
REMARK   80  A    between atoms: _193  and  _194
REMARK   81  A    between atoms: _193  and  _196
REMARK   82  A    between atoms: _199  and  _201
REMARK   83  A    between atoms: _201  and  _202
REMARK   84  A    between atoms: _201  and  _204
REMARK   85  A    between atoms: _207  and  _209
REMARK   86  A    between atoms: _209  and  _210
REMARK   87  A    between atoms: _209  and  _212
REMARK   88  A    between atoms: _212  and  _213
REMARK   89  A    between atoms: _213  and  _214
REMARK   90  A    between atoms: _214  and  _215
REMARK   91  A    between atoms: _224  and  _226
REMARK   92  A    between atoms: _226  and  _227
REMARK   93  A    between atoms: _226  and  _229
REMARK   94  A    between atoms: _232  and  _234
REMARK   95  A    between atoms: _234  and  _235
REMARK   96  A    between atoms: _234  and  _237
REMARK   97  A    between atoms: _240  and  _242
REMARK   98  A    between atoms: _242  and  _243
REMARK   99  A    between atoms: _242  and  _245
REMARK  100  A    between atoms: _245  and  _246
REMARK  101  A    between atoms: _246  and  _247
REMARK  102  A    between atoms: _249  and  _251
REMARK  103  A    between atoms: _251  and  _252
REMARK  104  A    between atoms: _251  and  _254
REMARK  105  A    between atoms: _255  and  _256
REMARK  106  A    between atoms: _259  and  _261
REMARK  107  A    between atoms: _261  and  _262
REMARK  108  A    between atoms: _261  and  _264
REMARK  109  A    between atoms: _264  and  _265
REMARK  110  A    between atoms: _268  and  _270
REMARK  111  A    between atoms: _270  and  _271
REMARK  112  A    between atoms: _270  and  _273
REMARK  113  A    between atoms: _273  and  _274
REMARK  114  A    between atoms: _274  and  _275
REMARK  115  A    between atoms: _277  and  _279
REMARK  116  A    between atoms: _279  and  _280
REMARK  117  A    between atoms: _283  and  _285
REMARK  118  A    between atoms: _285  and  _286
REMARK  119  A    between atoms: _285  and  _288
REMARK  120  A    between atoms: _288  and  _289
REMARK  121  A    between atoms: _294  and  _296
REMARK  122  A    between atoms: _296  and  _297
REMARK  123  A    between atoms: _299  and  _301
REMARK  124  A    between atoms: _301  and  _302
REMARK  125  A    between atoms: _301  and  _304
REMARK  126  A    between atoms: _304  and  _305
REMARK  127  A    between atoms: _308  and  _310
REMARK  128  A    between atoms: _310  and  _311
REMARK  129  A    between atoms: _310  and  _313
REMARK  130  A    between atoms: _313  and  _314
REMARK  131  A    between atoms: _317  and  _319
REMARK  132  A    between atoms: _319  and  _320
REMARK  133  A    between atoms: _319  and  _322
REMARK  134  A    between atoms: _322  and  _323
REMARK  135  A    between atoms: _323  and  _324
REMARK  136  A    between atoms: _324  and  _325
REMARK  137  A    between atoms: _325  and  _326
REMARK  138  A    between atoms: _330  and  _332
REMARK  139  A    between atoms: _332  and  _333
REMARK  140  A    between atoms: _332  and  _335
REMARK  141  A    between atoms: _335  and  _336
REMARK  142  A    between atoms: _338  and  _340
REMARK  143  A    between atoms: _340  and  _341
REMARK  144  A    between atoms: _340  and  _343
REMARK  145  A    between atoms: _343  and  _344
REMARK  146  A    between atoms: _349  and  _350
REMARK  147  A    between atoms: _352  and  _354
REMARK  148  A    between atoms: _354  and  _355
REMARK  149  A    between atoms: _354  and  _357
REMARK  150  A    between atoms: _357  and  _358
REMARK  151  A    between atoms: _360  and  _362
REMARK  152  A    between atoms: _362  and  _363
REMARK  153  A    between atoms: _362  and  _365
REMARK  154  A    between atoms: _365  and  _366
REMARK  155  A    between atoms: _369  and  _371
REMARK  156  A    between atoms: _371  and  _372
REMARK  157  A    between atoms: _371  and  _374
REMARK  158  A    between atoms: _374  and  _375
REMARK  159  A    between atoms: _375  and  _376
REMARK  160  A    between atoms: _379  and  _381
REMARK  161  A    between atoms: _381  and  _382
REMARK  162  A    between atoms: _381  and  _384
REMARK  163  A    between atoms: _384  and  _385
REMARK  164  A    between atoms: _390  and  _392
REMARK  165  A    between atoms: _392  and  _393
REMARK  166  A    between atoms: _392  and  _395
REMARK  167  A    between atoms: _395  and  _396
REMARK  168  A    between atoms: _402  and  _403
REMARK  169  A    between atoms: _408  and  _410
REMARK  170  A    between atoms: _410  and  _411
REMARK  171  A    between atoms: _413  and  _415
REMARK  172  A    between atoms: _415  and  _416
REMARK  173  A    between atoms: _415  and  _418
REMARK  174  A    between atoms: _418  and  _419
REMARK  175  A    between atoms: _419  and  _420
REMARK  176  A    between atoms: _420  and  _421
REMARK  177  A    between atoms: _430  and  _432
REMARK  178  A    between atoms: _432  and  _433
REMARK  179  A    between atoms: _432  and  _435
REMARK  180  A    between atoms: _435  and  _436
REMARK  181  A    between atoms: _436  and  _437
REMARK  182  A    between atoms: _437  and  _438
REMARK  183  A    between atoms: _447  and  _449
REMARK  184  A    between atoms: _449  and  _450
REMARK  185  A    between atoms: _449  and  _452
REMARK  186  A    between atoms: _452  and  _453
REMARK  187  A    between atoms: _458  and  _460
REMARK  188  A    between atoms: _460  and  _461
REMARK  189  A    between atoms: _460  and  _463
REMARK  190  A    between atoms: _465  and  _467
REMARK  191  A    between atoms: _467  and  _468
REMARK  192  A    between atoms: _467  and  _470
REMARK  193  A    between atoms: _470  and  _471
REMARK  194  A    between atoms: _471  and  _472
REMARK  195  A    between atoms: _474  and  _476
REMARK  196  A    between atoms: _476  and  _477
REMARK  197  A    between atoms: _476  and  _479
REMARK  198  A    between atoms: _482  and  _484
REMARK  199  A    between atoms: _484  and  _485
REMARK  200  A    between atoms: _484  and  _487
REMARK  201  A    between atoms: _487  and  _488
REMARK  202  A    between atoms: _488  and  _489
REMARK  203  A    between atoms: _489  and  _490
REMARK  204  A    between atoms: _490  and  _491
REMARK  205  A    between atoms: _495  and  _497
REMARK  206  A    between atoms: _497  and  _498
REMARK  207  A    between atoms: _497  and  _500
REMARK  208  A    between atoms: _500  and  _501
REMARK  209  A    between atoms: _504  and  _506
REMARK  210  A    between atoms: _506  and  _507
REMARK  211  A    between atoms: _509  and  _511
REMARK  212  A    between atoms: _511  and  _512
REMARK  213  A    between atoms: _511  and  _514
REMARK  214  A    between atoms: _514  and  _515
REMARK  215  A    between atoms: _518  and  _520
REMARK  216  A    between atoms: _520  and  _521
REMARK  217  A    between atoms: _520  and  _523
REMARK  218  A    between atoms: _523  and  _524
REMARK                            x       y       z     vdW  Elec       q    Type
REMARK                         _______ _______ _______ _____ _____    ______ ____
ROOT
ATOM      1  C   SER A   7      14.965  30.503  17.836  0.00  0.00    +0.243 C 
ATOM      2  O   SER A   7      15.655  31.397  18.331  0.00  0.00    -0.273 OA
ATOM      3  N   PHE A   8      14.121  30.709  16.805  0.00  0.00    -0.297 N 
ATOM      4  H   PHE A   8      13.554  29.906  16.467  0.00  0.00    +0.150 HD
ENDROOT
BRANCH   3   5
ATOM      5  CA  PHE A   8      13.958  32.003  16.133  0.00  0.00    +0.153 C 
BRANCH   5   6
ATOM      6  C   PHE A   8      12.807  32.851  16.667  0.00  0.00    +0.241 C 
ATOM      7  N   GLY A   9      11.843  32.194  17.303  0.00  0.00    -0.295 N 
ATOM      8  H   GLY A   9      11.937  31.162  17.396  0.00  0.00    +0.150 HD
ATOM      9  O   PHE A   8      12.810  34.075  16.494  0.00  0.00    -0.273 OA
BRANCH   7  10
ATOM     10  CA  GLY A   9      10.663  32.824  17.879  0.00  0.00    +0.176 C 
BRANCH  10  11
ATOM     11  C   GLY A   9       9.594  31.824  18.269  0.00  0.00    +0.243 C 
ATOM     12  N   MET A  10       8.386  32.328  18.563  0.00  0.00    -0.297 N 
ATOM     13  H   MET A  10       8.268  33.358  18.479  0.00  0.00    +0.150 HD
ATOM     14  O   GLY A   9       9.852  30.619  18.304  0.00  0.00    -0.273 OA
BRANCH  12  15
ATOM     15  CA  MET A  10       7.218  31.553  18.993  0.00  0.00    +0.149 C 
BRANCH  15  16
ATOM     16  C   MET A  10       6.726  30.558  17.941  0.00  0.00    +0.241 C 
ATOM     17  N   VAL A  11       6.427  29.325  18.385  0.00  0.00    -0.297 N 
ATOM     18  H   VAL A  11       6.603  29.103  19.386  0.00  0.00    +0.150 HD
ATOM     19  O   MET A  10       6.607  30.901  16.762  0.00  0.00    -0.273 OA
BRANCH  17  20
ATOM     20  CA  VAL A  11       5.865  28.278  17.528  0.00  0.00    +0.149 C 
BRANCH  20  21
ATOM     21  C   VAL A  11       4.370  28.172  17.847  0.00  0.00    +0.241 C 
ATOM     22  O   VAL A  11       3.982  28.125  19.017  0.00  0.00    -0.273 OA
ATOM     23  N   TYR A  12       3.538  28.198  16.802  0.00  0.00    -0.297 N 
ATOM     24  H   TYR A  12       3.948  28.246  15.847  0.00  0.00    +0.150 HD
BRANCH  23  25
ATOM     25  CA  TYR A  12       2.083  28.163  16.929  0.00  0.00    +0.153 C 
BRANCH  25  26
ATOM     26  C   TYR A  12       1.470  26.877  16.410  0.00  0.00    +0.241 C 
ATOM     27  N   GLU A  13       0.275  26.555  16.907  0.00  0.00    -0.297 N 
ATOM     28  H   GLU A  13      -0.095  27.109  17.706  0.00  0.00    +0.150 HD
ATOM     29  O   TYR A  12       2.052  26.202  15.567  0.00  0.00    -0.273 OA
BRANCH  27  30
ATOM     30  CA  GLU A  13      -0.532  25.469  16.386  0.00  0.00    +0.149 C 
BRANCH  30  31
ATOM     31  C   GLU A  13      -1.474  26.195  15.437  0.00  0.00    +0.241 C 
ATOM     32  O   GLU A  13      -2.005  27.256  15.779  0.00  0.00    -0.273 OA
ATOM     33  N   GLY A  14      -1.611  25.667  14.238  0.00  0.00    -0.296 N 
ATOM     34  H   GLY A  14      -1.088  24.799  14.005  0.00  0.00    +0.150 HD
BRANCH  33  35
ATOM     35  CA  GLY A  14      -2.472  26.264  13.234  0.00  0.00    +0.163 C 
BRANCH  35  36
ATOM     36  C   GLY A  14      -3.161  25.257  12.345  0.00  0.00    +0.229 C 
ATOM     37  O   GLY A  14      -3.101  24.047  12.588  0.00  0.00    -0.286 OA
ENDBRANCH  35  36
ENDBRANCH  33  35
ENDBRANCH  30  31
BRANCH  30  38
ATOM     38  CB  GLU A  13      -1.333  24.741  17.475  0.00  0.00    +0.041 C 
BRANCH  38  39
ATOM     39  CG  GLU A  13      -1.996  23.475  16.946  0.00  0.00    +0.116 C 
BRANCH  39  40
ATOM     40  CD  GLU A  13      -3.209  22.969  17.701  0.00  0.00    +0.365 C 
ATOM     41  OE2 GLU A  13      -3.142  22.854  18.946  0.00  0.00    -0.246 OA
ATOM     42  OE1 GLU A  13      -4.213  22.630  17.035  0.00  0.00    -0.246 OA
ENDBRANCH  39  40
ENDBRANCH  38  39
ENDBRANCH  30  38
ENDBRANCH  27  30
ENDBRANCH  25  26
BRANCH  25  43
ATOM     43  CB  TYR A  12       1.464  29.334  16.141  0.00  0.00    +0.055 C 
BRANCH  43  44
ATOM     44  CG  TYR A  12       1.778  30.704  16.693  0.00  0.00    -0.020 A 
ATOM     45  CD2 TYR A  12       0.931  31.318  17.612  0.00  0.00    -0.001 A 
ATOM     46  CE2 TYR A  12       1.203  32.592  18.108  0.00  0.00    +0.036 A 
ATOM     47  CZ  TYR A  12       2.329  33.272  17.676  0.00  0.00    +0.134 A 
ATOM     48  CE1 TYR A  12       3.176  32.689  16.747  0.00  0.00    +0.036 A 
ATOM     49  CD1 TYR A  12       2.893  31.415  16.256  0.00  0.00    -0.001 A 
BRANCH  47  50
ATOM     50  OH  TYR A  12       2.598  34.529  18.166  0.00  0.00    -0.506 OA
ATOM     51  HH  TYR A  12       1.895  34.787  18.814  0.00  0.00    +0.292 HD
ENDBRANCH  47  50
ENDBRANCH  43  44
ENDBRANCH  25  43
ENDBRANCH  23  25
ENDBRANCH  20  21
BRANCH  20  52
ATOM     52  CB  VAL A  11       6.632  26.933  17.621  0.00  0.00    +0.027 C 
ATOM     53  CG2 VAL A  11       8.108  27.132  17.267  0.00  0.00    +0.002 C 
ATOM     54  CG1 VAL A  11       6.010  25.866  16.716  0.00  0.00    +0.002 C 
ENDBRANCH  20  52
ENDBRANCH  17  20
ENDBRANCH  15  16
BRANCH  15  55
ATOM     55  CB  MET A  10       6.081  32.515  19.410  0.00  0.00    +0.041 C 
BRANCH  55  56
ATOM     56  CG  MET A  10       4.809  31.834  19.941  0.00  0.00    +0.060 C 
BRANCH  56  57
ATOM     57  SD  MET A  10       4.993  30.744  21.380  0.00  0.00    -0.139 S 
ATOM     58  CE  MET A  10       5.453  31.924  22.646  0.00  0.00    +0.069 C 
ENDBRANCH  56  57
ENDBRANCH  55  56
ENDBRANCH  15  55
ENDBRANCH  12  15
ENDBRANCH  10  11
ENDBRANCH   7  10
ENDBRANCH   5   6
BRANCH   5  59
ATOM     59  CB  PHE A   8      13.828  31.803  14.616  0.00  0.00    +0.055 C 
BRANCH  59  60
ATOM     60  CG  PHE A   8      15.082  31.298  13.939  0.00  0.00    -0.020 A 
ATOM     61  CD2 PHE A   8      15.319  29.933  13.804  0.00  0.00    -0.004 A 
ATOM     62  CE2 PHE A   8      16.477  29.465  13.175  0.00  0.00    -0.000 A 
ATOM     63  CZ  PHE A   8      17.400  30.359  12.677  0.00  0.00    -0.000 A 
ATOM     64  CE1 PHE A   8      17.182  31.717  12.797  0.00  0.00    -0.000 A 
ATOM     65  CD1 PHE A   8      16.021  32.187  13.423  0.00  0.00    -0.004 A 
ENDBRANCH  59  60
ENDBRANCH   5  59
ENDBRANCH   3   5
BRANCH   1  66
ATOM     66  CA  SER A   7      15.058  29.082  18.409  0.00  0.00    +0.178 C 
BRANCH  66  69
ATOM     67  C   GLY A   6      12.790  28.880  19.407  0.00  0.00    +0.243 C 
ATOM     68  O   GLY A   6      12.884  29.943  20.030  0.00  0.00    -0.273 OA
ATOM     69  N   SER A   7      13.768  28.412  18.610  0.00  0.00    -0.295 N 
ATOM     70  H   SER A   7      13.599  27.519  18.105  0.00  0.00    +0.150 HD
BRANCH  67  71
ATOM     71  CA  GLY A   6      11.520  28.054  19.504  0.00  0.00    +0.176 C 
BRANCH  71  74
ATOM     72  C   GLN A   5      10.105  28.283  21.518  0.00  0.00    +0.241 C 
ATOM     73  O   GLN A   5      10.425  27.196  22.004  0.00  0.00    -0.273 OA
ATOM     74  N   GLY A   6      10.536  28.730  20.341  0.00  0.00    -0.295 N 
ATOM     75  H   GLY A   6      10.142  29.627  19.993  0.00  0.00    +0.150 HD
BRANCH  72  76
ATOM     76  CA  GLN A   5       9.133  29.214  22.256  0.00  0.00    +0.149 C 
BRANCH  76  78
ATOM     77  C   GLY A   4       7.060  27.885  22.100  0.00  0.00    +0.243 C 
ATOM     78  N   GLN A   5       7.988  28.508  22.820  0.00  0.00    -0.297 N 
ATOM     79  H   GLN A   5       7.891  28.491  23.855  0.00  0.00    +0.150 HD
ATOM     80  O   GLY A   4       7.079  27.838  20.865  0.00  0.00    -0.273 OA
BRANCH  77  81
ATOM     81  CA  GLY A   4       5.952  27.224  22.888  0.00  0.00    +0.176 C 
BRANCH  81  84
ATOM     82  C   LEU A   3       3.781  26.143  22.462  0.00  0.00    +0.241 C 
ATOM     83  O   LEU A   3       3.729  25.587  23.559  0.00  0.00    -0.273 OA
ATOM     84  N   GLY A   4       4.774  26.941  22.080  0.00  0.00    -0.295 N 
ATOM     85  H   GLY A   4       4.705  27.391  21.145  0.00  0.00    +0.150 HD
BRANCH  82  86
ATOM     86  CA  LEU A   3       2.642  25.971  21.464  0.00  0.00    +0.149 C 
BRANCH  86  89
ATOM     87  C   GLU A   2       1.088  27.851  21.434  0.00  0.00    +0.245 C 
ATOM     88  O   GLU A   2       0.290  27.281  22.177  0.00  0.00    -0.273 OA
ATOM     89  N   LEU A   3       2.220  27.291  21.018  0.00  0.00    -0.297 N 
ATOM     90  H   LEU A   3       2.824  27.813  20.352  0.00  0.00    +0.150 HD
BRANCH  87  91
ATOM     91  CA  GLU A   2       0.814  29.269  20.976  0.00  0.00    +0.172 C 
BRANCH  91  93
ATOM     92  C   ARG A   1      -1.267  28.856  19.726  0.00  0.00    +0.239 C 
ATOM     93  N   GLU A   2      -0.626  29.395  20.772  0.00  0.00    -0.294 N 
ATOM     94  H   GLU A   2      -1.181  29.928  21.472  0.00  0.00    +0.150 HD
ATOM     95  O   ARG A   1      -0.696  28.248  18.821  0.00  0.00    -0.274 OA
BRANCH  92  96
ATOM     96  CA  ARG A   1      -2.785  28.985  19.722  0.00  0.00    +0.145 C 
BRANCH  96  97
ATOM     97  N   ARG A   1      -3.352  28.725  18.394  0.00  0.00    -0.238 NA
ATOM     98  H   ARG A   1      -2.772  28.193  17.714  0.00  0.00    +0.142 HD
ENDBRANCH  96  97
BRANCH  96  99
ATOM     99  CB  ARG A   1      -3.387  28.022  20.782  0.00  0.00    +0.030 C 
BRANCH  99 100
ATOM    100  CG  ARG A   1      -3.201  26.534  20.476  0.00  0.00    +0.045 C 
BRANCH 100 101
ATOM    101  CD  ARG A   1      -3.266  25.678  21.723  0.00  0.00    +0.174 C 
BRANCH 101 102
ATOM    102  NE  ARG A   1      -3.053  24.265  21.402  0.00  0.00    -0.265 N 
ATOM    103  CZ  ARG A   1      -2.309  23.426  22.118  0.00  0.00    +0.342 C 
ATOM    104  NH2 ARG A   1      -1.695  23.843  23.220  0.00  0.00    -0.292 N 
ATOM    105 HH21 ARG A   1      -1.115  23.181  23.774  0.00  0.00    +0.255 HD
ATOM    106 HH22 ARG A   1      -1.794  24.831  23.528  0.00  0.00    +0.255 HD
ATOM    107  NH1 ARG A   1      -2.177  22.161  21.739  0.00  0.00    -0.292 N 
ATOM    108 HH11 ARG A   1      -1.595  21.508  22.301  0.00  0.00    +0.255 HD
ATOM    109 HH12 ARG A   1      -2.656  21.823  20.880  0.00  0.00    +0.255 HD
ATOM    110  HE  ARG A   1      -3.518  23.889  20.551  0.00  0.00    +0.259 HD
ENDBRANCH 101 102
ENDBRANCH 100 101
ENDBRANCH  99 100
ENDBRANCH  96  99
ENDBRANCH  92  96
ENDBRANCH  91  93
BRANCH  91 111
ATOM    111  CB  GLU A   2       1.299  30.216  22.084  0.00  0.00    +0.009 C 
ATOM    112  CG  GLU A   2       1.410  31.675  21.681  0.00  0.00    +0.084 C 
BRANCH 112 113
ATOM    113  CD  GLU A   2       1.877  32.614  22.779  0.00  0.00    +0.388 C 
ATOM    114  OE2 GLU A   2       1.961  32.183  23.952  0.00  0.00    -0.241 OA
ATOM    115  OE1 GLU A   2       2.149  33.794  22.463  0.00  0.00    -0.241 OA
ENDBRANCH 112 113
ENDBRANCH  91 111
ENDBRANCH  87  91
ENDBRANCH  86  89
BRANCH  86 116
ATOM    116  CB  LEU A   3       3.071  25.086  20.284  0.00  0.00    +0.029 C 
BRANCH 116 117
ATOM    117  CG  LEU A   3       1.963  24.547  19.384  0.00  0.00    +0.002 C 
ATOM    118  CD2 LEU A   3       1.021  23.612  20.146  0.00  0.00    +0.000 C 
ATOM    119  CD1 LEU A   3       2.560  23.838  18.189  0.00  0.00    +0.000 C 
ENDBRANCH 116 117
ENDBRANCH  86 116
ENDBRANCH  82  86
ENDBRANCH  81  84
ENDBRANCH  77  81
ENDBRANCH  76  78
BRANCH  76 120
ATOM    120  CB  GLN A   5       9.868  29.997  23.364  0.00  0.00    +0.039 C 
BRANCH 120 121
ATOM    121  CG  GLN A   5      10.677  31.196  22.861  0.00  0.00    +0.087 C 
BRANCH 121 122
ATOM    122  CD  GLN A   5       9.822  32.361  22.419  0.00  0.00    +0.219 C 
ATOM    123  OE1 GLN A   5       8.855  32.755  23.081  0.00  0.00    -0.275 OA
ATOM    124  NE2 GLN A   5      10.193  32.969  21.310  0.00  0.00    -0.329 N 
ATOM    125 HE21 GLN A   5       9.668  33.801  20.973  0.00  0.00    +0.145 HD
ATOM    126 HE22 GLN A   5      11.010  32.617  20.772  0.00  0.00    +0.145 HD
ENDBRANCH 121 122
ENDBRANCH 120 121
ENDBRANCH  76 120
ENDBRANCH  72  76
ENDBRANCH  71  74
ENDBRANCH  67  71
ENDBRANCH  66  69
BRANCH  66 127
ATOM    127  CB  SER A   7      15.978  28.230  17.543  0.00  0.00    +0.166 C 
BRANCH 127 128
ATOM    128  OG  SER A   7      16.392  27.072  18.247  0.00  0.00    -0.380 OA
ATOM    129  H   SER A   7      16.988  26.532  17.670  0.00  0.00    +0.211 HD
ENDBRANCH 127 128
ENDBRANCH  66 127
ENDBRANCH   1  66
TORSDOF 53
REMARK  Name = ../refined-set-2016/5e1s/5e1s_pocket.pdb
REMARK  218 active torsions:
REMARK  status: ('A' for Active; 'I' for Inactive)
REMARK    1  A    between atoms: _1  and  _3
REMARK    2  A    between atoms: _3  and  _4
REMARK    3  A    between atoms: _3  and  _6
REMARK    4  A    between atoms: _6  and  _7
REMARK    5  A    between atoms: _7  and  _8
REMARK    6  A    between atoms: _8  and  _9
REMARK    7  A    between atoms: _18  and  _20
REMARK    8  A    between atoms: _20  and  _21
REMARK    9  A    between atoms: _20  and  _23
REMARK   10  A    between atoms: _24  and  _25
REMARK   11  A    between atoms: _28  and  _30
REMARK   12  A    between atoms: _30  and  _31
REMARK   13  A    between atoms: _30  and  _33
REMARK   14  A    between atoms: _33  and  _34
REMARK   15  A    between atoms: _37  and  _39
REMARK   16  A    between atoms: _39  and  _40
REMARK   17  A    between atoms: _42  and  _44
REMARK   18  A    between atoms: _44  and  _45
REMARK   19  A    between atoms: _44  and  _47
REMARK   20  A    between atoms: _47  and  _48
REMARK   21  A    between atoms: _48  and  _49
REMARK   22  A    between atoms: _54  and  _56
REMARK   23  A    between atoms: _56  and  _57
REMARK   24  A    between atoms: _59  and  _61
REMARK   25  A    between atoms: _61  and  _62
REMARK   26  A    between atoms: _61  and  _64
REMARK   27  A    between atoms: _64  and  _65
REMARK   28  A    between atoms: _67  and  _69
REMARK   29  A    between atoms: _69  and  _70
REMARK   30  A    between atoms: _69  and  _72
REMARK   31  A    between atoms: _72  and  _73
REMARK   32  A    between atoms: _79  and  _81
REMARK   33  A    between atoms: _81  and  _82
REMARK   34  A    between atoms: _84  and  _86
REMARK   35  A    between atoms: _86  and  _87
REMARK   36  A    between atoms: _86  and  _89
REMARK   37  A    between atoms: _89  and  _90
REMARK   38  A    between atoms: _90  and  _91
REMARK   39  A    between atoms: _93  and  _95
REMARK   40  A    between atoms: _95  and  _96
REMARK   41  A    between atoms: _95  and  _98
REMARK   42  A    between atoms: _101  and  _103
REMARK   43  A    between atoms: _103  and  _104
REMARK   44  A    between atoms: _103  and  _106
REMARK   45  A    between atoms: _106  and  _107
REMARK   46  A    between atoms: _112  and  _113
REMARK   47  A    between atoms: _115  and  _117
REMARK   48  A    between atoms: _117  and  _118
REMARK   49  A    between atoms: _117  and  _120
REMARK   50  A    between atoms: _120  and  _121
REMARK   51  A    between atoms: _121  and  _122
REMARK   52  A    between atoms: _125  and  _127
REMARK   53  A    between atoms: _127  and  _128
REMARK   54  A    between atoms: _130  and  _132
REMARK   55  A    between atoms: _132  and  _133
REMARK   56  A    between atoms: _132  and  _135
REMARK   57  A    between atoms: _135  and  _136
REMARK   58  A    between atoms: _136  and  _137
REMARK   59  A    between atoms: _137  and  _138
REMARK   60  A    between atoms: _147  and  _149
REMARK   61  A    between atoms: _149  and  _150
REMARK   62  A    between atoms: _149  and  _152
REMARK   63  A    between atoms: _155  and  _157
REMARK   64  A    between atoms: _157  and  _158
REMARK   65  A    between atoms: _161  and  _163
REMARK   66  A    between atoms: _163  and  _164
REMARK   67  A    between atoms: _163  and  _166
REMARK   68  A    between atoms: _169  and  _171
REMARK   69  A    between atoms: _171  and  _172
REMARK   70  A    between atoms: _171  and  _174
REMARK   71  A    between atoms: _174  and  _175
REMARK   72  A    between atoms: _175  and  _176
REMARK   73  A    between atoms: _176  and  _177
REMARK   74  A    between atoms: _177  and  _178
REMARK   75  A    between atoms: _182  and  _184
REMARK   76  A    between atoms: _184  and  _185
REMARK   77  A    between atoms: _184  and  _187
REMARK   78  A    between atoms: _187  and  _188
REMARK   79  A    between atoms: _191  and  _193
REMARK   80  A    between atoms: _193  and  _194
REMARK   81  A    between atoms: _193  and  _196
REMARK   82  A    between atoms: _199  and  _201
REMARK   83  A    between atoms: _201  and  _202
REMARK   84  A    between atoms: _201  and  _204
REMARK   85  A    between atoms: _207  and  _209
REMARK   86  A    between atoms: _209  and  _210
REMARK   87  A    between atoms: _209  and  _212
REMARK   88  A    between atoms: _212  and  _213
REMARK   89  A    between atoms: _213  and  _214
REMARK   90  A    between atoms: _214  and  _215
REMARK   91  A    between atoms: _224  and  _226
REMARK   92  A    between atoms: _226  and  _227
REMARK   93  A    between atoms: _226  and  _229
REMARK   94  A    between atoms: _232  and  _234
REMARK   95  A    between atoms: _234  and  _235
REMARK   96  A    between atoms: _234  and  _237
REMARK   97  A    between atoms: _240  and  _242
REMARK   98  A    between atoms: _242  and  _243
REMARK   99  A    between atoms: _242  and  _245
REMARK  100  A    between atoms: _245  and  _246
REMARK  101  A    between atoms: _246  and  _247
REMARK  102  A    between atoms: _249  and  _251
REMARK  103  A    between atoms: _251  and  _252
REMARK  104  A    between atoms: _251  and  _254
REMARK  105  A    between atoms: _255  and  _256
REMARK  106  A    between atoms: _259  and  _261
REMARK  107  A    between atoms: _261  and  _262
REMARK  108  A    between atoms: _261  and  _264
REMARK  109  A    between atoms: _264  and  _265
REMARK  110  A    between atoms: _268  and  _270
REMARK  111  A    between atoms: _270  and  _271
REMARK  112  A    between atoms: _270  and  _273
REMARK  113  A    between atoms: _273  and  _274
REMARK  114  A    between atoms: _274  and  _275
REMARK  115  A    between atoms: _277  and  _279
REMARK  116  A    between atoms: _279  and  _280
REMARK  117  A    between atoms: _283  and  _285
REMARK  118  A    between atoms: _285  and  _286
REMARK  119  A    between atoms: _285  and  _288
REMARK  120  A    between atoms: _288  and  _289
REMARK  121  A    between atoms: _294  and  _296
REMARK  122  A    between atoms: _296  and  _297
REMARK  123  A    between atoms: _299  and  _301
REMARK  124  A    between atoms: _301  and  _302
REMARK  125  A    between atoms: _301  and  _304
REMARK  126  A    between atoms: _304  and  _305
REMARK  127  A    between atoms: _308  and  _310
REMARK  128  A    between atoms: _310  and  _311
REMARK  129  A    between atoms: _310  and  _313
REMARK  130  A    between atoms: _313  and  _314
REMARK  131  A    between atoms: _317  and  _319
REMARK  132  A    between atoms: _319  and  _320
REMARK  133  A    between atoms: _319  and  _322
REMARK  134  A    between atoms: _322  and  _323
REMARK  135  A    between atoms: _323  and  _324
REMARK  136  A    between atoms: _324  and  _325
REMARK  137  A    between atoms: _325  and  _326
REMARK  138  A    between atoms: _330  and  _332
REMARK  139  A    between atoms: _332  and  _333
REMARK  140  A    between atoms: _332  and  _335
REMARK  141  A    between atoms: _335  and  _336
REMARK  142  A    between atoms: _338  and  _340
REMARK  143  A    between atoms: _340  and  _341
REMARK  144  A    between atoms: _340  and  _343
REMARK  145  A    between atoms: _343  and  _344
REMARK  146  A    between atoms: _349  and  _350
REMARK  147  A    between atoms: _352  and  _354
REMARK  148  A    between atoms: _354  and  _355
REMARK  149  A    between atoms: _354  and  _357
REMARK  150  A    between atoms: _357  and  _358
REMARK  151  A    between atoms: _360  and  _362
REMARK  152  A    between atoms: _362  and  _363
REMARK  153  A    between atoms: _362  and  _365
REMARK  154  A    between atoms: _365  and  _366
REMARK  155  A    between atoms: _369  and  _371
REMARK  156  A    between atoms: _371  and  _372
REMARK  157  A    between atoms: _371  and  _374
REMARK  158  A    between atoms: _374  and  _375
REMARK  159  A    between atoms: _375  and  _376
REMARK  160  A    between atoms: _379  and  _381
REMARK  161  A    between atoms: _381  and  _382
REMARK  162  A    between atoms: _381  and  _384
REMARK  163  A    between atoms: _384  and  _385
REMARK  164  A    between atoms: _390  and  _392
REMARK  165  A    between atoms: _392  and  _393
REMARK  166  A    between atoms: _392  and  _395
REMARK  167  A    between atoms: _395  and  _396
REMARK  168  A    between atoms: _402  and  _403
REMARK  169  A    between atoms: _408  and  _410
REMARK  170  A    between atoms: _410  and  _411
REMARK  171  A    between atoms: _413  and  _415
REMARK  172  A    between atoms: _415  and  _416
REMARK  173  A    between atoms: _415  and  _418
REMARK  174  A    between atoms: _418  and  _419
REMARK  175  A    between atoms: _419  and  _420
REMARK  176  A    between atoms: _420  and  _421
REMARK  177  A    between atoms: _430  and  _432
REMARK  178  A    between atoms: _432  and  _433
REMARK  179  A    between atoms: _432  and  _435
REMARK  180  A    between atoms: _435  and  _436
REMARK  181  A    between atoms: _436  and  _437
REMARK  182  A    between atoms: _437  and  _438
REMARK  183  A    between atoms: _447  and  _449
REMARK  184  A    between atoms: _449  and  _450
REMARK  185  A    between atoms: _449  and  _452
REMARK  186  A    between atoms: _452  and  _453
REMARK  187  A    between atoms: _458  and  _460
REMARK  188  A    between atoms: _460  and  _461
REMARK  189  A    between atoms: _460  and  _463
REMARK  190  A    between atoms: _465  and  _467
REMARK  191  A    between atoms: _467  and  _468
REMARK  192  A    between atoms: _467  and  _470
REMARK  193  A    between atoms: _470  and  _471
REMARK  194  A    between atoms: _471  and  _472
REMARK  195  A    between atoms: _474  and  _476
REMARK  196  A    between atoms: _476  and  _477
REMARK  197  A    between atoms: _476  and  _479
REMARK  198  A    between atoms: _482  and  _484
REMARK  199  A    between atoms: _484  and  _485
REMARK  200  A    between atoms: _484  and  _487
REMARK  201  A    between atoms: _487  and  _488
REMARK  202  A    between atoms: _488  and  _489
REMARK  203  A    between atoms: _489  and  _490
REMARK  204  A    between atoms: _490  and  _491
REMARK  205  A    between atoms: _495  and  _497
REMARK  206  A    between atoms: _497  and  _498
REMARK  207  A    between atoms: _497  and  _500
REMARK  208  A    between atoms: _500  and  _501
REMARK  209  A    between atoms: _504  and  _506
REMARK  210  A    between atoms: _506  and  _507
REMARK  211  A    between atoms: _509  and  _511
REMARK  212  A    between atoms: _511  and  _512
REMARK  213  A    between atoms: _511  and  _514
REMARK  214  A    between atoms: _514  and  _515
REMARK  215  A    between atoms: _518  and  _520
REMARK  216  A    between atoms: _520  and  _521
REMARK  217  A    between atoms: _520  and  _523
REMARK  218  A    between atoms: _523  and  _524
REMARK                            x       y       z     vdW  Elec       q    Type
REMARK                         _______ _______ _______ _____ _____    ______ ____
ROOT
ATOM      1  C   ALA A   3       3.607  24.929  12.805  0.00  0.00    +0.241 C 
ATOM      2  N   VAL A   4       3.338  26.186  13.183  0.00  0.00    -0.297 N 
ATOM      3  H   VAL A   4       2.729  26.345  14.011  0.00  0.00    +0.150 HD
ATOM      4  O   ALA A   3       4.269  24.664  11.801  0.00  0.00    -0.273 OA
ENDROOT
BRANCH   1   5
ATOM      5  CA  ALA A   3       2.962  23.801  13.606  0.00  0.00    +0.149 C 
ATOM      6  CB  ALA A   3       4.021  22.881  14.172  0.00  0.00    +0.031 C 
BRANCH   5   9
ATOM      7  C   VAL A   2       0.794  23.101  12.624  0.00  0.00    +0.241 C 
ATOM      8  O   VAL A   2       0.098  23.583  13.524  0.00  0.00    -0.273 OA
ATOM      9  N   ALA A   3       2.140  23.111  12.632  0.00  0.00    -0.297 N 
ATOM     10  H   ALA A   3       2.628  22.583  11.881  0.00  0.00    +0.150 HD
BRANCH   7  11
ATOM     11  CA  VAL A   2       0.159  22.470  11.392  0.00  0.00    +0.148 C 
BRANCH  11  13
ATOM     12  C   ARG A   1      -1.680  20.889  11.211  0.00  0.00    +0.238 C 
ATOM     13  N   VAL A   2      -1.258  22.119  11.522  0.00  0.00    -0.297 N 
ATOM     14  H   VAL A   2      -1.939  22.830  11.858  0.00  0.00    +0.150 HD
ATOM     15  O   ARG A   1      -0.918  20.006  10.795  0.00  0.00    -0.274 OA
BRANCH  12  16
ATOM     16  CA  ARG A   1      -3.177  20.625  11.289  0.00  0.00    +0.145 C 
BRANCH  16  17
ATOM     17  N   ARG A   1      -3.564  20.130   9.965  0.00  0.00    -0.238 NA
ATOM     18  H   ARG A   1      -3.796  19.121   9.869  0.00  0.00    +0.142 HD
ENDBRANCH  16  17
BRANCH  16  19
ATOM     19  CB  ARG A   1      -3.472  19.577  12.373  0.00  0.00    +0.030 C 
BRANCH  19  20
ATOM     20  CG  ARG A   1      -4.952  19.259  12.553  0.00  0.00    +0.045 C 
BRANCH  20  21
ATOM     21  CD  ARG A   1      -5.159  18.345  13.743  0.00  0.00    +0.174 C 
BRANCH  21  22
ATOM     22  NE  ARG A   1      -4.981  19.053  15.014  0.00  0.00    -0.265 N 
ATOM     23  CZ  ARG A   1      -4.813  18.454  16.187  0.00  0.00    +0.342 C 
ATOM     24  NH2 ARG A   1      -4.653  19.174  17.289  0.00  0.00    -0.292 N 
ATOM     25 HH21 ARG A   1      -4.522  18.700  18.205  0.00  0.00    +0.255 HD
ATOM     26 HH22 ARG A   1      -4.659  20.213  17.237  0.00  0.00    +0.255 HD
ATOM     27  NH1 ARG A   1      -4.794  17.129  16.268  0.00  0.00    -0.292 N 
ATOM     28 HH11 ARG A   1      -4.662  16.666  17.190  0.00  0.00    +0.255 HD
ATOM     29 HH12 ARG A   1      -4.911  16.554  15.409  0.00  0.00    +0.255 HD
ATOM     30  HE  ARG A   1      -4.987  20.093  14.996  0.00  0.00    +0.259 HD
ENDBRANCH  21  22
ENDBRANCH  20  21
ENDBRANCH  19  20
ENDBRANCH  16  19
ENDBRANCH  12  16
ENDBRANCH  11  13
BRANCH  11  31
ATOM     31  CB  VAL A   2       0.419  23.345  10.128  0.00  0.00    +0.027 C 
ATOM     32  CG2 VAL A   2      -0.349  24.665  10.184  0.00  0.00    +0.002 C 
ATOM     33  CG1 VAL A   2       0.119  22.586   8.833  0.00  0.00    +0.002 C 
ENDBRANCH  11  31
ENDBRANCH   7  11
ENDBRANCH   5   9
ENDBRANCH   1   5
BRANCH   2  34
ATOM     34  CA  VAL A   4       3.877  27.340  12.465  0.00  0.00    +0.149 C 
BRANCH  34  35
ATOM     35  C   VAL A   4       5.006  28.013  13.253  0.00  0.00    +0.241 C 
ATOM     36  O   VAL A   4       4.757  28.595  14.312  0.00  0.00    -0.273 OA
ATOM     37  N   LYS A   5       6.238  27.937  12.722  0.00  0.00    -0.297 N 
ATOM     38  H   LYS A   5       6.357  27.403  11.838  0.00  0.00    +0.150 HD
BRANCH  37  39
ATOM     39  CA  LYS A   5       7.423  28.562  13.315  0.00  0.00    +0.149 C 
BRANCH  39  40
ATOM     40  C   LYS A   5       7.460  30.011  12.857  0.00  0.00    +0.241 C 
ATOM     41  N   THR A   6       7.756  30.932  13.777  0.00  0.00    -0.296 N 
ATOM     42  H   THR A   6       7.941  30.625  14.753  0.00  0.00    +0.150 HD
ATOM     43  O   LYS A   5       7.226  30.291  11.680  0.00  0.00    -0.273 OA
BRANCH  41  44
ATOM     44  CA  THR A   6       7.830  32.360  13.460  0.00  0.00    +0.164 C 
BRANCH  44  45
ATOM     45  C   THR A   6       9.174  32.939  13.930  0.00  0.00    +0.229 C 
ATOM     46  O   THR A   6       9.891  32.297  14.701  0.00  0.00    -0.286 OA
ENDBRANCH  44  45
BRANCH  44  47
ATOM     47  CB  THR A   6       6.639  33.133  14.089  0.00  0.00    +0.136 C 
ATOM     48  CG2 THR A   6       5.277  32.594  13.671  0.00  0.00    +0.034 C 
BRANCH  47  49
ATOM     49  OG1 THR A   6       6.752  33.117  15.510  0.00  0.00    -0.382 OA
ATOM     50  HG1 THR A   6       6.742  32.180  15.830  0.00  0.00    +0.210 HD
ENDBRANCH  47  49
ENDBRANCH  44  47
ENDBRANCH  41  44
ENDBRANCH  39  40
BRANCH  39  51
ATOM     51  CB  LYS A   5       8.716  27.876  12.849  0.00  0.00    +0.029 C 
BRANCH  51  52
ATOM     52  CG  LYS A   5       8.975  26.488  13.399  0.00  0.00    +0.000 C 
BRANCH  52  53
ATOM     53  CD  LYS A   5      10.420  26.122  13.116  0.00  0.00    -0.024 C 
BRANCH  53  54
ATOM     54  CE  LYS A   5      10.654  24.644  13.030  0.00  0.00    -0.086 C 
BRANCH  54  55
ATOM     55  NZ  LYS A   5      12.063  24.342  12.673  0.00  0.00    +0.380 N 
ATOM     56  HZ1 LYS A   5      12.695  24.736  13.398  0.00  0.00    -0.089 HD
ATOM     57  HZ2 LYS A   5      12.193  23.311  12.621  0.00  0.00    -0.089 HD
ATOM     58  HZ3 LYS A   5      12.284  24.767  11.750  0.00  0.00    -0.089 HD
ENDBRANCH  54  55
ENDBRANCH  53  54
ENDBRANCH  52  53
ENDBRANCH  51  52
ENDBRANCH  39  51
ENDBRANCH  37  39
ENDBRANCH  34  35
BRANCH  34  59
ATOM     59  CB  VAL A   4       2.788  28.349  12.003  0.00  0.00    +0.027 C 
ATOM     60  CG2 VAL A   4       1.613  27.636  11.341  0.00  0.00    +0.002 C 
ATOM     61  CG1 VAL A   4       3.377  29.397  11.057  0.00  0.00    +0.002 C 
ENDBRANCH  34  59
ENDBRANCH   2  34
TORSDOF 25
REMARK  Name = ../refined-set-2016/5e1s/5e1s_pocket.pdb
REMARK  218 active torsions:
REMARK  status: ('A' for Active; 'I' for Inactive)
REMARK    1  A    between atoms: _1  and  _3
REMARK    2  A    between atoms: _3  and  _4
REMARK    3  A    between atoms: _3  and  _6
REMARK    4  A    between atoms: _6  and  _7
REMARK    5  A    between atoms: _7  and  _8
REMARK    6  A    between atoms: _8  and  _9
REMARK    7  A    between atoms: _18  and  _20
REMARK    8  A    between atoms: _20  and  _21
REMARK    9  A    between atoms: _20  and  _23
REMARK   10  A    between atoms: _24  and  _25
REMARK   11  A    between atoms: _28  and  _30
REMARK   12  A    between atoms: _30  and  _31
REMARK   13  A    between atoms: _30  and  _33
REMARK   14  A    between atoms: _33  and  _34
REMARK   15  A    between atoms: _37  and  _39
REMARK   16  A    between atoms: _39  and  _40
REMARK   17  A    between atoms: _42  and  _44
REMARK   18  A    between atoms: _44  and  _45
REMARK   19  A    between atoms: _44  and  _47
REMARK   20  A    between atoms: _47  and  _48
REMARK   21  A    between atoms: _48  and  _49
REMARK   22  A    between atoms: _54  and  _56
REMARK   23  A    between atoms: _56  and  _57
REMARK   24  A    between atoms: _59  and  _61
REMARK   25  A    between atoms: _61  and  _62
REMARK   26  A    between atoms: _61  and  _64
REMARK   27  A    between atoms: _64  and  _65
REMARK   28  A    between atoms: _67  and  _69
REMARK   29  A    between atoms: _69  and  _70
REMARK   30  A    between atoms: _69  and  _72
REMARK   31  A    between atoms: _72  and  _73
REMARK   32  A    between atoms: _79  and  _81
REMARK   33  A    between atoms: _81  and  _82
REMARK   34  A    between atoms: _84  and  _86
REMARK   35  A    between atoms: _86  and  _87
REMARK   36  A    between atoms: _86  and  _89
REMARK   37  A    between atoms: _89  and  _90
REMARK   38  A    between atoms: _90  and  _91
REMARK   39  A    between atoms: _93  and  _95
REMARK   40  A    between atoms: _95  and  _96
REMARK   41  A    between atoms: _95  and  _98
REMARK   42  A    between atoms: _101  and  _103
REMARK   43  A    between atoms: _103  and  _104
REMARK   44  A    between atoms: _103  and  _106
REMARK   45  A    between atoms: _106  and  _107
REMARK   46  A    between atoms: _112  and  _113
REMARK   47  A    between atoms: _115  and  _117
REMARK   48  A    between atoms: _117  and  _118
REMARK   49  A    between atoms: _117  and  _120
REMARK   50  A    between atoms: _120  and  _121
REMARK   51  A    between atoms: _121  and  _122
REMARK   52  A    between atoms: _125  and  _127
REMARK   53  A    between atoms: _127  and  _128
REMARK   54  A    between atoms: _130  and  _132
REMARK   55  A    between atoms: _132  and  _133
REMARK   56  A    between atoms: _132  and  _135
REMARK   57  A    between atoms: _135  and  _136
REMARK   58  A    between atoms: _136  and  _137
REMARK   59  A    between atoms: _137  and  _138
REMARK   60  A    between atoms: _147  and  _149
REMARK   61  A    between atoms: _149  and  _150
REMARK   62  A    between atoms: _149  and  _152
REMARK   63  A    between atoms: _155  and  _157
REMARK   64  A    between atoms: _157  and  _158
REMARK   65  A    between atoms: _161  and  _163
REMARK   66  A    between atoms: _163  and  _164
REMARK   67  A    between atoms: _163  and  _166
REMARK   68  A    between atoms: _169  and  _171
REMARK   69  A    between atoms: _171  and  _172
REMARK   70  A    between atoms: _171  and  _174
REMARK   71  A    between atoms: _174  and  _175
REMARK   72  A    between atoms: _175  and  _176
REMARK   73  A    between atoms: _176  and  _177
REMARK   74  A    between atoms: _177  and  _178
REMARK   75  A    between atoms: _182  and  _184
REMARK   76  A    between atoms: _184  and  _185
REMARK   77  A    between atoms: _184  and  _187
REMARK   78  A    between atoms: _187  and  _188
REMARK   79  A    between atoms: _191  and  _193
REMARK   80  A    between atoms: _193  and  _194
REMARK   81  A    between atoms: _193  and  _196
REMARK   82  A    between atoms: _199  and  _201
REMARK   83  A    between atoms: _201  and  _202
REMARK   84  A    between atoms: _201  and  _204
REMARK   85  A    between atoms: _207  and  _209
REMARK   86  A    between atoms: _209  and  _210
REMARK   87  A    between atoms: _209  and  _212
REMARK   88  A    between atoms: _212  and  _213
REMARK   89  A    between atoms: _213  and  _214
REMARK   90  A    between atoms: _214  and  _215
REMARK   91  A    between atoms: _224  and  _226
REMARK   92  A    between atoms: _226  and  _227
REMARK   93  A    between atoms: _226  and  _229
REMARK   94  A    between atoms: _232  and  _234
REMARK   95  A    between atoms: _234  and  _235
REMARK   96  A    between atoms: _234  and  _237
REMARK   97  A    between atoms: _240  and  _242
REMARK   98  A    between atoms: _242  and  _243
REMARK   99  A    between atoms: _242  and  _245
REMARK  100  A    between atoms: _245  and  _246
REMARK  101  A    between atoms: _246  and  _247
REMARK  102  A    between atoms: _249  and  _251
REMARK  103  A    between atoms: _251  and  _252
REMARK  104  A    between atoms: _251  and  _254
REMARK  105  A    between atoms: _255  and  _256
REMARK  106  A    between atoms: _259  and  _261
REMARK  107  A    between atoms: _261  and  _262
REMARK  108  A    between atoms: _261  and  _264
REMARK  109  A    between atoms: _264  and  _265
REMARK  110  A    between atoms: _268  and  _270
REMARK  111  A    between atoms: _270  and  _271
REMARK  112  A    between atoms: _270  and  _273
REMARK  113  A    between atoms: _273  and  _274
REMARK  114  A    between atoms: _274  and  _275
REMARK  115  A    between atoms: _277  and  _279
REMARK  116  A    between atoms: _279  and  _280
REMARK  117  A    between atoms: _283  and  _285
REMARK  118  A    between atoms: _285  and  _286
REMARK  119  A    between atoms: _285  and  _288
REMARK  120  A    between atoms: _288  and  _289
REMARK  121  A    between atoms: _294  and  _296
REMARK  122  A    between atoms: _296  and  _297
REMARK  123  A    between atoms: _299  and  _301
REMARK  124  A    between atoms: _301  and  _302
REMARK  125  A    between atoms: _301  and  _304
REMARK  126  A    between atoms: _304  and  _305
REMARK  127  A    between atoms: _308  and  _310
REMARK  128  A    between atoms: _310  and  _311
REMARK  129  A    between atoms: _310  and  _313
REMARK  130  A    between atoms: _313  and  _314
REMARK  131  A    between atoms: _317  and  _319
REMARK  132  A    between atoms: _319  and  _320
REMARK  133  A    between atoms: _319  and  _322
REMARK  134  A    between atoms: _322  and  _323
REMARK  135  A    between atoms: _323  and  _324
REMARK  136  A    between atoms: _324  and  _325
REMARK  137  A    between atoms: _325  and  _326
REMARK  138  A    between atoms: _330  and  _332
REMARK  139  A    between atoms: _332  and  _333
REMARK  140  A    between atoms: _332  and  _335
REMARK  141  A    between atoms: _335  and  _336
REMARK  142  A    between atoms: _338  and  _340
REMARK  143  A    between atoms: _340  and  _341
REMARK  144  A    between atoms: _340  and  _343
REMARK  145  A    between atoms: _343  and  _344
REMARK  146  A    between atoms: _349  and  _350
REMARK  147  A    between atoms: _352  and  _354
REMARK  148  A    between atoms: _354  and  _355
REMARK  149  A    between atoms: _354  and  _357
REMARK  150  A    between atoms: _357  and  _358
REMARK  151  A    between atoms: _360  and  _362
REMARK  152  A    between atoms: _362  and  _363
REMARK  153  A    between atoms: _362  and  _365
REMARK  154  A    between atoms: _365  and  _366
REMARK  155  A    between atoms: _369  and  _371
REMARK  156  A    between atoms: _371  and  _372
REMARK  157  A    between atoms: _371  and  _374
REMARK  158  A    between atoms: _374  and  _375
REMARK  159  A    between atoms: _375  and  _376
REMARK  160  A    between atoms: _379  and  _381
REMARK  161  A    between atoms: _381  and  _382
REMARK  162  A    between atoms: _381  and  _384
REMARK  163  A    between atoms: _384  and  _385
REMARK  164  A    between atoms: _390  and  _392
REMARK  165  A    between atoms: _392  and  _393
REMARK  166  A    between atoms: _392  and  _395
REMARK  167  A    between atoms: _395  and  _396
REMARK  168  A    between atoms: _402  and  _403
REMARK  169  A    between atoms: _408  and  _410
REMARK  170  A    between atoms: _410  and  _411
REMARK  171  A    between atoms: _413  and  _415
REMARK  172  A    between atoms: _415  and  _416
REMARK  173  A    between atoms: _415  and  _418
REMARK  174  A    between atoms: _418  and  _419
REMARK  175  A    between atoms: _419  and  _420
REMARK  176  A    between atoms: _420  and  _421
REMARK  177  A    between atoms: _430  and  _432
REMARK  178  A    between atoms: _432  and  _433
REMARK  179  A    between atoms: _432  and  _435
REMARK  180  A    between atoms: _435  and  _436
REMARK  181  A    between atoms: _436  and  _437
REMARK  182  A    between atoms: _437  and  _438
REMARK  183  A    between atoms: _447  and  _449
REMARK  184  A    between atoms: _449  and  _450
REMARK  185  A    between atoms: _449  and  _452
REMARK  186  A    between atoms: _452  and  _453
REMARK  187  A    between atoms: _458  and  _460
REMARK  188  A    between atoms: _460  and  _461
REMARK  189  A    between atoms: _460  and  _463
REMARK  190  A    between atoms: _465  and  _467
REMARK  191  A    between atoms: _467  and  _468
REMARK  192  A    between atoms: _467  and  _470
REMARK  193  A    between atoms: _470  and  _471
REMARK  194  A    between atoms: _471  and  _472
REMARK  195  A    between atoms: _474  and  _476
REMARK  196  A    between atoms: _476  and  _477
REMARK  197  A    between atoms: _476  and  _479
REMARK  198  A    between atoms: _482  and  _484
REMARK  199  A    between atoms: _484  and  _485
REMARK  200  A    between atoms: _484  and  _487
REMARK  201  A    between atoms: _487  and  _488
REMARK  202  A    between atoms: _488  and  _489
REMARK  203  A    between atoms: _489  and  _490
REMARK  204  A    between atoms: _490  and  _491
REMARK  205  A    between atoms: _495  and  _497
REMARK  206  A    between atoms: _497  and  _498
REMARK  207  A    between atoms: _497  and  _500
REMARK  208  A    between atoms: _500  and  _501
REMARK  209  A    between atoms: _504  and  _506
REMARK  210  A    between atoms: _506  and  _507
REMARK  211  A    between atoms: _509  and  _511
REMARK  212  A    between atoms: _511  and  _512
REMARK  213  A    between atoms: _511  and  _514
REMARK  214  A    between atoms: _514  and  _515
REMARK  215  A    between atoms: _518  and  _520
REMARK  216  A    between atoms: _520  and  _521
REMARK  217  A    between atoms: _520  and  _523
REMARK  218  A    between atoms: _523  and  _524
REMARK                            x       y       z     vdW  Elec       q    Type
REMARK                         _______ _______ _______ _____ _____    ______ ____
ROOT
ATOM      1  C   VAL A   2       9.477  16.936  10.140  0.00  0.00    +0.241 C 
ATOM      2  O   VAL A   2      10.557  17.499   9.944  0.00  0.00    -0.273 OA
ATOM      3  N   ARG A   3       8.494  16.892   9.232  0.00  0.00    -0.298 N 
ATOM      4  H   ARG A   3       7.607  16.420   9.499  0.00  0.00    +0.150 HD
ENDROOT
BRANCH   1   5
ATOM      5  CA  VAL A   2       9.231  16.162  11.440  0.00  0.00    +0.148 C 
BRANCH   5   7
ATOM      6  C   VAL A   1      10.616  14.248  10.666  0.00  0.00    +0.238 C 
ATOM      7  N   VAL A   2      10.315  15.179  11.601  0.00  0.00    -0.297 N 
ATOM      8  H   VAL A   2      10.877  15.201  12.476  0.00  0.00    +0.150 HD
ATOM      9  O   VAL A   1       9.968  14.104   9.629  0.00  0.00    -0.274 OA
BRANCH   6  10
ATOM     10  CA  VAL A   1      11.791  13.301  10.941  0.00  0.00    +0.145 C 
BRANCH  10  11
ATOM     11  CB  VAL A   1      13.055  13.647  10.083  0.00  0.00    +0.025 C 
ATOM     12  CG2 VAL A   1      13.541  15.068  10.371  0.00  0.00    +0.002 C 
ATOM     13  CG1 VAL A   1      14.188  12.651  10.323  0.00  0.00    +0.002 C 
ENDBRANCH  10  11
BRANCH  10  14
ATOM     14  N   VAL A   1      11.267  11.950  10.729  0.00  0.00    -0.238 NA
ATOM     15  H   VAL A   1      10.731  11.774   9.855  0.00  0.00    +0.142 HD
ENDBRANCH  10  14
ENDBRANCH   6  10
ENDBRANCH   5   7
BRANCH   5  16
ATOM     16  CB  VAL A   2       9.018  17.084  12.676  0.00  0.00    +0.027 C 
ATOM     17  CG2 VAL A   2       8.721  16.269  13.936  0.00  0.00    +0.002 C 
ATOM     18  CG1 VAL A   2       7.904  18.096  12.425  0.00  0.00    +0.002 C 
ENDBRANCH   5  16
ENDBRANCH   1   5
BRANCH   3  19
ATOM     19  CA  ARG A   3       8.586  17.464   7.889  0.00  0.00    +0.137 C 
BRANCH  19  20
ATOM     20  C   ARG A   3       8.131  18.907   7.691  0.00  0.00    +0.227 C 
ATOM     21  O   ARG A   3       7.180  19.368   8.318  0.00  0.00    -0.286 OA
ENDBRANCH  19  20
BRANCH  19  22
ATOM     22  CB  ARG A   3       7.903  16.540   6.867  0.00  0.00    +0.031 C 
BRANCH  22  23
ATOM     23  CG  ARG A   3       8.762  15.334   6.497  0.00  0.00    +0.045 C 
BRANCH  23  24
ATOM     24  CD  ARG A   3       8.129  14.450   5.444  0.00  0.00    +0.174 C 
BRANCH  24  25
ATOM     25  NE  ARG A   3       8.209  15.039   4.107  0.00  0.00    -0.265 N 
ATOM     26  HE  ARG A   3       8.591  16.003   4.022  0.00  0.00    +0.259 HD
ATOM     27  CZ  ARG A   3       7.825  14.422   2.993  0.00  0.00    +0.342 C 
ATOM     28  NH2 ARG A   3       7.347  13.184   3.042  0.00  0.00    -0.292 N 
ATOM     29 HH21 ARG A   3       7.271  12.692   3.955  0.00  0.00    +0.255 HD
ATOM     30 HH22 ARG A   3       7.048  12.707   2.167  0.00  0.00    +0.255 HD
ATOM     31  NH1 ARG A   3       7.925  15.035   1.820  0.00  0.00    -0.292 N 
ATOM     32 HH11 ARG A   3       8.305  16.002   1.769  0.00  0.00    +0.255 HD
ATOM     33 HH12 ARG A   3       7.623  14.549   0.952  0.00  0.00    +0.255 HD
ENDBRANCH  24  25
ENDBRANCH  23  24
ENDBRANCH  22  23
ENDBRANCH  19  22
ENDBRANCH   3  19
TORSDOF 12
REMARK  Name = ../refined-set-2016/5e1s/5e1s_pocket.pdb
REMARK  218 active torsions:
REMARK  status: ('A' for Active; 'I' for Inactive)
REMARK    1  A    between atoms: _1  and  _3
REMARK    2  A    between atoms: _3  and  _4
REMARK    3  A    between atoms: _3  and  _6
REMARK    4  A    between atoms: _6  and  _7
REMARK    5  A    between atoms: _7  and  _8
REMARK    6  A    between atoms: _8  and  _9
REMARK    7  A    between atoms: _18  and  _20
REMARK    8  A    between atoms: _20  and  _21
REMARK    9  A    between atoms: _20  and  _23
REMARK   10  A    between atoms: _24  and  _25
REMARK   11  A    between atoms: _28  and  _30
REMARK   12  A    between atoms: _30  and  _31
REMARK   13  A    between atoms: _30  and  _33
REMARK   14  A    between atoms: _33  and  _34
REMARK   15  A    between atoms: _37  and  _39
REMARK   16  A    between atoms: _39  and  _40
REMARK   17  A    between atoms: _42  and  _44
REMARK   18  A    between atoms: _44  and  _45
REMARK   19  A    between atoms: _44  and  _47
REMARK   20  A    between atoms: _47  and  _48
REMARK   21  A    between atoms: _48  and  _49
REMARK   22  A    between atoms: _54  and  _56
REMARK   23  A    between atoms: _56  and  _57
REMARK   24  A    between atoms: _59  and  _61
REMARK   25  A    between atoms: _61  and  _62
REMARK   26  A    between atoms: _61  and  _64
REMARK   27  A    between atoms: _64  and  _65
REMARK   28  A    between atoms: _67  and  _69
REMARK   29  A    between atoms: _69  and  _70
REMARK   30  A    between atoms: _69  and  _72
REMARK   31  A    between atoms: _72  and  _73
REMARK   32  A    between atoms: _79  and  _81
REMARK   33  A    between atoms: _81  and  _82
REMARK   34  A    between atoms: _84  and  _86
REMARK   35  A    between atoms: _86  and  _87
REMARK   36  A    between atoms: _86  and  _89
REMARK   37  A    between atoms: _89  and  _90
REMARK   38  A    between atoms: _90  and  _91
REMARK   39  A    between atoms: _93  and  _95
REMARK   40  A    between atoms: _95  and  _96
REMARK   41  A    between atoms: _95  and  _98
REMARK   42  A    between atoms: _101  and  _103
REMARK   43  A    between atoms: _103  and  _104
REMARK   44  A    between atoms: _103  and  _106
REMARK   45  A    between atoms: _106  and  _107
REMARK   46  A    between atoms: _112  and  _113
REMARK   47  A    between atoms: _115  and  _117
REMARK   48  A    between atoms: _117  and  _118
REMARK   49  A    between atoms: _117  and  _120
REMARK   50  A    between atoms: _120  and  _121
REMARK   51  A    between atoms: _121  and  _122
REMARK   52  A    between atoms: _125  and  _127
REMARK   53  A    between atoms: _127  and  _128
REMARK   54  A    between atoms: _130  and  _132
REMARK   55  A    between atoms: _132  and  _133
REMARK   56  A    between atoms: _132  and  _135
REMARK   57  A    between atoms: _135  and  _136
REMARK   58  A    between atoms: _136  and  _137
REMARK   59  A    between atoms: _137  and  _138
REMARK   60  A    between atoms: _147  and  _149
REMARK   61  A    between atoms: _149  and  _150
REMARK   62  A    between atoms: _149  and  _152
REMARK   63  A    between atoms: _155  and  _157
REMARK   64  A    between atoms: _157  and  _158
REMARK   65  A    between atoms: _161  and  _163
REMARK   66  A    between atoms: _163  and  _164
REMARK   67  A    between atoms: _163  and  _166
REMARK   68  A    between atoms: _169  and  _171
REMARK   69  A    between atoms: _171  and  _172
REMARK   70  A    between atoms: _171  and  _174
REMARK   71  A    between atoms: _174  and  _175
REMARK   72  A    between atoms: _175  and  _176
REMARK   73  A    between atoms: _176  and  _177
REMARK   74  A    between atoms: _177  and  _178
REMARK   75  A    between atoms: _182  and  _184
REMARK   76  A    between atoms: _184  and  _185
REMARK   77  A    between atoms: _184  and  _187
REMARK   78  A    between atoms: _187  and  _188
REMARK   79  A    between atoms: _191  and  _193
REMARK   80  A    between atoms: _193  and  _194
REMARK   81  A    between atoms: _193  and  _196
REMARK   82  A    between atoms: _199  and  _201
REMARK   83  A    between atoms: _201  and  _202
REMARK   84  A    between atoms: _201  and  _204
REMARK   85  A    between atoms: _207  and  _209
REMARK   86  A    between atoms: _209  and  _210
REMARK   87  A    between atoms: _209  and  _212
REMARK   88  A    between atoms: _212  and  _213
REMARK   89  A    between atoms: _213  and  _214
REMARK   90  A    between atoms: _214  and  _215
REMARK   91  A    between atoms: _224  and  _226
REMARK   92  A    between atoms: _226  and  _227
REMARK   93  A    between atoms: _226  and  _229
REMARK   94  A    between atoms: _232  and  _234
REMARK   95  A    between atoms: _234  and  _235
REMARK   96  A    between atoms: _234  and  _237
REMARK   97  A    between atoms: _240  and  _242
REMARK   98  A    between atoms: _242  and  _243
REMARK   99  A    between atoms: _242  and  _245
REMARK  100  A    between atoms: _245  and  _246
REMARK  101  A    between atoms: _246  and  _247
REMARK  102  A    between atoms: _249  and  _251
REMARK  103  A    between atoms: _251  and  _252
REMARK  104  A    between atoms: _251  and  _254
REMARK  105  A    between atoms: _255  and  _256
REMARK  106  A    between atoms: _259  and  _261
REMARK  107  A    between atoms: _261  and  _262
REMARK  108  A    between atoms: _261  and  _264
REMARK  109  A    between atoms: _264  and  _265
REMARK  110  A    between atoms: _268  and  _270
REMARK  111  A    between atoms: _270  and  _271
REMARK  112  A    between atoms: _270  and  _273
REMARK  113  A    between atoms: _273  and  _274
REMARK  114  A    between atoms: _274  and  _275
REMARK  115  A    between atoms: _277  and  _279
REMARK  116  A    between atoms: _279  and  _280
REMARK  117  A    between atoms: _283  and  _285
REMARK  118  A    between atoms: _285  and  _286
REMARK  119  A    between atoms: _285  and  _288
REMARK  120  A    between atoms: _288  and  _289
REMARK  121  A    between atoms: _294  and  _296
REMARK  122  A    between atoms: _296  and  _297
REMARK  123  A    between atoms: _299  and  _301
REMARK  124  A    between atoms: _301  and  _302
REMARK  125  A    between atoms: _301  and  _304
REMARK  126  A    between atoms: _304  and  _305
REMARK  127  A    between atoms: _308  and  _310
REMARK  128  A    between atoms: _310  and  _311
REMARK  129  A    between atoms: _310  and  _313
REMARK  130  A    between atoms: _313  and  _314
REMARK  131  A    between atoms: _317  and  _319
REMARK  132  A    between atoms: _319  and  _320
REMARK  133  A    between atoms: _319  and  _322
REMARK  134  A    between atoms: _322  and  _323
REMARK  135  A    between atoms: _323  and  _324
REMARK  136  A    between atoms: _324  and  _325
REMARK  137  A    between atoms: _325  and  _326
REMARK  138  A    between atoms: _330  and  _332
REMARK  139  A    between atoms: _332  and  _333
REMARK  140  A    between atoms: _332  and  _335
REMARK  141  A    between atoms: _335  and  _336
REMARK  142  A    between atoms: _338  and  _340
REMARK  143  A    between atoms: _340  and  _341
REMARK  144  A    between atoms: _340  and  _343
REMARK  145  A    between atoms: _343  and  _344
REMARK  146  A    between atoms: _349  and  _350
REMARK  147  A    between atoms: _352  and  _354
REMARK  148  A    between atoms: _354  and  _355
REMARK  149  A    between atoms: _354  and  _357
REMARK  150  A    between atoms: _357  and  _358
REMARK  151  A    between atoms: _360  and  _362
REMARK  152  A    between atoms: _362  and  _363
REMARK  153  A    between atoms: _362  and  _365
REMARK  154  A    between atoms: _365  and  _366
REMARK  155  A    between atoms: _369  and  _371
REMARK  156  A    between atoms: _371  and  _372
REMARK  157  A    between atoms: _371  and  _374
REMARK  158  A    between atoms: _374  and  _375
REMARK  159  A    between atoms: _375  and  _376
REMARK  160  A    between atoms: _379  and  _381
REMARK  161  A    between atoms: _381  and  _382
REMARK  162  A    between atoms: _381  and  _384
REMARK  163  A    between atoms: _384  and  _385
REMARK  164  A    between atoms: _390  and  _392
REMARK  165  A    between atoms: _392  and  _393
REMARK  166  A    between atoms: _392  and  _395
REMARK  167  A    between atoms: _395  and  _396
REMARK  168  A    between atoms: _402  and  _403
REMARK  169  A    between atoms: _408  and  _410
REMARK  170  A    between atoms: _410  and  _411
REMARK  171  A    between atoms: _413  and  _415
REMARK  172  A    between atoms: _415  and  _416
REMARK  173  A    between atoms: _415  and  _418
REMARK  174  A    between atoms: _418  and  _419
REMARK  175  A    between atoms: _419  and  _420
REMARK  176  A    between atoms: _420  and  _421
REMARK  177  A    between atoms: _430  and  _432
REMARK  178  A    between atoms: _432  and  _433
REMARK  179  A    between atoms: _432  and  _435
REMARK  180  A    between atoms: _435  and  _436
REMARK  181  A    between atoms: _436  and  _437
REMARK  182  A    between atoms: _437  and  _438
REMARK  183  A    between atoms: _447  and  _449
REMARK  184  A    between atoms: _449  and  _450
REMARK  185  A    between atoms: _449  and  _452
REMARK  186  A    between atoms: _452  and  _453
REMARK  187  A    between atoms: _458  and  _460
REMARK  188  A    between atoms: _460  and  _461
REMARK  189  A    between atoms: _460  and  _463
REMARK  190  A    between atoms: _465  and  _467
REMARK  191  A    between atoms: _467  and  _468
REMARK  192  A    between atoms: _467  and  _470
REMARK  193  A    between atoms: _470  and  _471
REMARK  194  A    between atoms: _471  and  _472
REMARK  195  A    between atoms: _474  and  _476
REMARK  196  A    between atoms: _476  and  _477
REMARK  197  A    between atoms: _476  and  _479
REMARK  198  A    between atoms: _482  and  _484
REMARK  199  A    between atoms: _484  and  _485
REMARK  200  A    between atoms: _484  and  _487
REMARK  201  A    between atoms: _487  and  _488
REMARK  202  A    between atoms: _488  and  _489
REMARK  203  A    between atoms: _489  and  _490
REMARK  204  A    between atoms: _490  and  _491
REMARK  205  A    between atoms: _495  and  _497
REMARK  206  A    between atoms: _497  and  _498
REMARK  207  A    between atoms: _497  and  _500
REMARK  208  A    between atoms: _500  and  _501
REMARK  209  A    between atoms: _504  and  _506
REMARK  210  A    between atoms: _506  and  _507
REMARK  211  A    between atoms: _509  and  _511
REMARK  212  A    between atoms: _511  and  _512
REMARK  213  A    between atoms: _511  and  _514
REMARK  214  A    between atoms: _514  and  _515
REMARK  215  A    between atoms: _518  and  _520
REMARK  216  A    between atoms: _520  and  _521
REMARK  217  A    between atoms: _520  and  _523
REMARK  218  A    between atoms: _523  and  _524
REMARK                            x       y       z     vdW  Elec       q    Type
REMARK                         _______ _______ _______ _____ _____    ______ ____
ROOT
ATOM      1  CA  HIS A   8       1.098  14.871  21.487  0.00  0.00    +0.155 C 
ENDROOT
BRANCH   1   2
ATOM      2  C   HIS A   8       2.334  15.606  22.024  0.00  0.00    +0.241 C 
ATOM      3  O   HIS A   8       2.734  15.374  23.164  0.00  0.00    -0.273 OA
ATOM      4  N   GLY A   9       2.884  16.518  21.216  0.00  0.00    -0.295 N 
ATOM      5  H   GLY A   9       2.462  16.650  20.274  0.00  0.00    +0.150 HD
BRANCH   4   6
ATOM      6  CA  GLY A   9       4.039  17.343  21.568  0.00  0.00    +0.176 C 
BRANCH   6   7
ATOM      7  C   GLY A   9       5.355  16.617  21.728  0.00  0.00    +0.243 C 
ATOM      8  N   ASP A  10       6.262  17.193  22.541  0.00  0.00    -0.296 N 
ATOM      9  H   ASP A  10       6.010  18.087  23.010  0.00  0.00    +0.150 HD
ATOM     10  O   GLY A   9       5.557  15.554  21.134  0.00  0.00    -0.273 OA
BRANCH   8  11
ATOM     11  CA  ASP A  10       7.581  16.622  22.795  0.00  0.00    +0.160 C 
BRANCH  11  12
ATOM     12  C   ASP A  10       7.507  15.327  23.605  0.00  0.00    +0.241 C 
ATOM     13  O   ASP A  10       6.571  15.147  24.385  0.00  0.00    -0.273 OA
ATOM     14  N   LEU A  11       8.473  14.409  23.382  0.00  0.00    -0.297 N 
ATOM     15  H   LEU A  11       9.223  14.637  22.698  0.00  0.00    +0.150 HD
BRANCH  14  16
ATOM     16  CA  LEU A  11       8.518  13.113  24.052  0.00  0.00    +0.149 C 
BRANCH  16  17
ATOM     17  C   LEU A  11       8.697  13.226  25.575  0.00  0.00    +0.241 C 
ATOM     18  O   LEU A  11       8.048  12.472  26.299  0.00  0.00    -0.273 OA
ATOM     19  N   LYS A  12       9.516  14.187  26.062  0.00  0.00    -0.297 N 
ATOM     20  H   LYS A  12      10.015  14.806  25.391  0.00  0.00    +0.150 HD
BRANCH  19  21
ATOM     21  CA  LYS A  12       9.728  14.390  27.506  0.00  0.00    +0.149 C 
BRANCH  21  22
ATOM     22  C   LYS A  12       8.398  14.652  28.234  0.00  0.00    +0.241 C 
ATOM     23  O   LYS A  12       8.035  13.877  29.123  0.00  0.00    -0.273 OA
ATOM     24  N   SER A  13       7.664  15.708  27.822  0.00  0.00    -0.295 N 
ATOM     25  H   SER A  13       8.055  16.295  27.058  0.00  0.00    +0.150 HD
BRANCH  24  26
ATOM     26  CA  SER A  13       6.354  16.092  28.370  0.00  0.00    +0.178 C 
BRANCH  26  27
ATOM     27  C   SER A  13       5.364  14.924  28.291  0.00  0.00    +0.243 C 
ATOM     28  O   SER A  13       4.641  14.693  29.252  0.00  0.00    -0.273 OA
ATOM     29  N   TYR A  14       5.351  14.180  27.160  0.00  0.00    -0.298 N 
ATOM     30  H   TYR A  14       5.996  14.442  26.388  0.00  0.00    +0.150 HD
BRANCH  29  31
ATOM     31  CA  TYR A  14       4.471  13.023  26.972  0.00  0.00    +0.141 C 
BRANCH  31  32
ATOM     32  C   TYR A  14       4.767  11.895  27.965  0.00  0.00    +0.227 C 
ATOM     33  O   TYR A  14       3.826  11.310  28.493  0.00  0.00    -0.286 OA
ENDBRANCH  31  32
BRANCH  31  34
ATOM     34  CB  TYR A  14       4.512  12.513  25.523  0.00  0.00    +0.054 C 
BRANCH  34  35
ATOM     35  CG  TYR A  14       3.687  11.264  25.288  0.00  0.00    -0.020 A 
ATOM     36  CD2 TYR A  14       4.293  10.015  25.187  0.00  0.00    -0.001 A 
ATOM     37  CE2 TYR A  14       3.543   8.863  24.961  0.00  0.00    +0.036 A 
ATOM     38  CZ  TYR A  14       2.166   8.952  24.834  0.00  0.00    +0.134 A 
ATOM     39  CE1 TYR A  14       1.540  10.185  24.929  0.00  0.00    +0.036 A 
ATOM     40  CD1 TYR A  14       2.303  11.332  25.150  0.00  0.00    -0.001 A 
BRANCH  38  41
ATOM     41  OH  TYR A  14       1.432   7.812  24.617  0.00  0.00    -0.506 OA
ATOM     42  HH  TYR A  14       0.472   8.046  24.550  0.00  0.00    +0.292 HD
ENDBRANCH  38  41
ENDBRANCH  34  35
ENDBRANCH  31  34
ENDBRANCH  29  31
ENDBRANCH  26  27
BRANCH  26  43
ATOM     43  CB  SER A  13       5.786  17.295  27.617  0.00  0.00    +0.166 C 
BRANCH  43  44
ATOM     44  OG  SER A  13       6.664  18.407  27.657  0.00  0.00    -0.380 OA
ATOM     45  H   SER A  13       7.527  18.159  27.240  0.00  0.00    +0.211 HD
ENDBRANCH  43  44
ENDBRANCH  26  43
ENDBRANCH  24  26
ENDBRANCH  21  22
BRANCH  21  46
ATOM     46  CB  LYS A  12      10.746  15.512  27.776  0.00  0.00    +0.029 C 
BRANCH  46  47
ATOM     47  CG  LYS A  12      11.158  15.642  29.240  0.00  0.00    +0.000 C 
BRANCH  47  48
ATOM     48  CD  LYS A  12      11.752  16.999  29.547  0.00  0.00    -0.024 C 
BRANCH  48  49
ATOM     49  CE  LYS A  12      12.004  17.171  31.025  0.00  0.00    -0.086 C 
BRANCH  49  50
ATOM     50  NZ  LYS A  12      12.457  18.549  31.349  0.00  0.00    +0.380 N 
ATOM     51  HZ1 LYS A  12      12.620  18.627  32.373  0.00  0.00    -0.089 HD
ATOM     52  HZ2 LYS A  12      11.726  19.230  31.060  0.00  0.00    -0.089 HD
ATOM     53  HZ3 LYS A  12      13.341  18.751  30.840  0.00  0.00    -0.089 HD
ENDBRANCH  49  50
ENDBRANCH  48  49
ENDBRANCH  47  48
ENDBRANCH  46  47
ENDBRANCH  21  46
ENDBRANCH  19  21
ENDBRANCH  16  17
BRANCH  16  54
ATOM     54  CB  LEU A  11       9.565  12.182  23.396  0.00  0.00    +0.029 C 
BRANCH  54  55
ATOM     55  CG  LEU A  11       9.736  10.754  23.966  0.00  0.00    +0.002 C 
ATOM     56  CD2 LEU A  11       8.456   9.903  23.798  0.00  0.00    +0.000 C 
ATOM     57  CD1 LEU A  11      10.950  10.061  23.355  0.00  0.00    +0.000 C 
ENDBRANCH  54  55
ENDBRANCH  16  54
ENDBRANCH  14  16
ENDBRANCH  11  12
BRANCH  11  58
ATOM     58  CB  ASP A  10       8.553  17.655  23.401  0.00  0.00    +0.143 C 
BRANCH  58  59
ATOM     59  CG  ASP A  10       8.250  18.024  24.840  0.00  0.00    +0.367 C 
ATOM     60  OD2 ASP A  10       8.798  17.363  25.750  0.00  0.00    -0.246 OA
ATOM     61  OD1 ASP A  10       7.471  18.977  25.056  0.00  0.00    -0.246 OA
ENDBRANCH  58  59
ENDBRANCH  11  58
ENDBRANCH   8  11
ENDBRANCH   6   7
ENDBRANCH   4   6
ENDBRANCH   1   2
BRANCH   1  64
ATOM     62  C   ALA A   7      -0.120  16.064  19.714  0.00  0.00    +0.241 C 
ATOM     63  O   ALA A   7      -0.757  16.742  20.529  0.00  0.00    -0.273 OA
ATOM     64  N   HIS A   8       0.792  15.142  20.079  0.00  0.00    -0.297 N 
ATOM     65  H   HIS A   8       1.293  14.607  19.341  0.00  0.00    +0.150 HD
BRANCH  62  66
ATOM     66  CA  ALA A   7      -0.370  16.284  18.218  0.00  0.00    +0.149 C 
ATOM     67  CB  ALA A   7      -1.562  15.473  17.735  0.00  0.00    +0.031 C 
BRANCH  66  70
ATOM     68  C   MET A   6       1.988  16.668  17.450  0.00  0.00    +0.241 C 
ATOM     69  O   MET A   6       2.317  17.316  18.444  0.00  0.00    -0.273 OA
ATOM     70  N   ALA A   7       0.760  16.154  17.284  0.00  0.00    -0.297 N 
ATOM     71  H   ALA A   7       0.590  15.612  16.413  0.00  0.00    +0.150 HD
BRANCH  68  72
ATOM     72  CA  MET A   6       2.947  16.503  16.263  0.00  0.00    +0.149 C 
BRANCH  72  74
ATOM     73  C   LEU A   5       2.124  17.689  14.266  0.00  0.00    +0.241 C 
ATOM     74  N   MET A   6       2.739  17.693  15.447  0.00  0.00    -0.297 N 
ATOM     75  H   MET A   6       3.093  18.601  15.810  0.00  0.00    +0.150 HD
ATOM     76  O   LEU A   5       1.751  16.662  13.695  0.00  0.00    -0.273 OA
BRANCH  73  77
ATOM     77  CA  LEU A   5       1.916  19.049  13.632  0.00  0.00    +0.149 C 
BRANCH  77  80
ATOM     78  C   GLU A   4       3.463  19.075  11.787  0.00  0.00    +0.245 C 
ATOM     79  O   GLU A   4       4.416  19.258  12.552  0.00  0.00    -0.273 OA
ATOM     80  N   LEU A   5       2.208  18.990  12.208  0.00  0.00    -0.297 N 
ATOM     81  H   LEU A   5       1.434  18.881  11.522  0.00  0.00    +0.150 HD
BRANCH  78  82
ATOM     82  CA  GLU A   4       3.695  18.993  10.279  0.00  0.00    +0.172 C 
BRANCH  82  85
ATOM     83  C   MET A   3       4.579  21.254   9.972  0.00  0.00    +0.241 C 
ATOM     84  O   MET A   3       3.492  21.763  10.256  0.00  0.00    -0.273 OA
ATOM     85  N   GLU A   4       4.779  19.917   9.936  0.00  0.00    -0.294 N 
ATOM     86  H   GLU A   4       5.710  19.542   9.663  0.00  0.00    +0.150 HD
BRANCH  83  87
ATOM     87  CA  MET A   3       5.789  22.150   9.730  0.00  0.00    +0.149 C 
BRANCH  87  89
ATOM     88  C   VAL A   2       5.483  24.171   8.290  0.00  0.00    +0.241 C 
ATOM     89  N   MET A   3       5.359  23.529   9.466  0.00  0.00    -0.297 N 
ATOM     90  H   MET A   3       4.923  24.052  10.252  0.00  0.00    +0.150 HD
ATOM     91  O   VAL A   2       5.979  23.659   7.282  0.00  0.00    -0.273 OA
BRANCH  88  92
ATOM     92  CA  VAL A   2       4.984  25.623   8.258  0.00  0.00    +0.148 C 
BRANCH  92  95
ATOM     93  C   VAL A   1       6.787  27.198   8.933  0.00  0.00    +0.238 C 
ATOM     94  O   VAL A   1       6.555  27.086  10.139  0.00  0.00    -0.274 OA
ATOM     95  N   VAL A   2       6.091  26.547   7.993  0.00  0.00    -0.297 N 
ATOM     96  H   VAL A   2       6.355  26.709   7.000  0.00  0.00    +0.150 HD
BRANCH  93  97
ATOM     97  CA  VAL A   1       7.855  28.187   8.424  0.00  0.00    +0.145 C 
BRANCH  97  98
ATOM     98  CB  VAL A   1       9.330  27.832   8.790  0.00  0.00    +0.025 C 
ATOM     99  CG2 VAL A   1       9.587  26.327   8.782  0.00  0.00    +0.002 C 
ATOM    100  CG1 VAL A   1      10.300  28.529   7.845  0.00  0.00    +0.002 C 
ENDBRANCH  97  98
BRANCH  97 101
ATOM    101  N   VAL A   1       7.442  29.526   8.860  0.00  0.00    -0.238 NA
ATOM    102  H   VAL A   1       7.188  29.636   9.862  0.00  0.00    +0.142 HD
ENDBRANCH  97 101
ENDBRANCH  93  97
ENDBRANCH  92  95
BRANCH  92 103
ATOM    103  CB  VAL A   2       3.810  25.845   7.259  0.00  0.00    +0.027 C 
ATOM    104  CG2 VAL A   2       2.572  25.071   7.676  0.00  0.00    +0.002 C 
ATOM    105  CG1 VAL A   2       3.478  27.328   7.113  0.00  0.00    +0.002 C 
ENDBRANCH  92 103
ENDBRANCH  88  92
ENDBRANCH  87  89
BRANCH  87 106
ATOM    106  CB  MET A   3       6.678  22.090  11.002  0.00  0.00    +0.041 C 
BRANCH 106 107
ATOM    107  CG  MET A   3       7.895  23.000  10.985  0.00  0.00    +0.060 C 
BRANCH 107 108
ATOM    108  SD  MET A   3       9.094  22.625   9.693  0.00  0.00    -0.139 S 
ATOM    109  CE  MET A   3       9.847  21.134  10.357  0.00  0.00    +0.069 C 
ENDBRANCH 107 108
ENDBRANCH 106 107
ENDBRANCH  87 106
ENDBRANCH  83  87
ENDBRANCH  82  85
BRANCH  82 110
ATOM    110  CB  GLU A   4       3.987  17.544   9.824  0.00  0.00    +0.009 C 
ATOM    111  CG  GLU A   4       4.968  16.779  10.688  0.00  0.00    +0.084 C 
BRANCH 111 112
ATOM    112  CD  GLU A   4       5.272  15.364  10.250  0.00  0.00    +0.388 C 
ATOM    113  OE2 GLU A   4       4.512  14.440  10.621  0.00  0.00    -0.241 OA
ATOM    114  OE1 GLU A   4       6.324  15.171   9.603  0.00  0.00    -0.241 OA
ENDBRANCH 111 112
ENDBRANCH  82 110
ENDBRANCH  78  82
ENDBRANCH  77  80
BRANCH  77 115
ATOM    115  CB  LEU A   5       0.493  19.581  13.906  0.00  0.00    +0.029 C 
BRANCH 115 116
ATOM    116  CG  LEU A   5       0.086  19.765  15.394  0.00  0.00    +0.002 C 
ATOM    117  CD2 LEU A   5       0.806  20.949  16.043  0.00  0.00    +0.000 C 
ATOM    118  CD1 LEU A   5      -1.421  19.921  15.536  0.00  0.00    +0.000 C 
ENDBRANCH 115 116
ENDBRANCH  77 115
ENDBRANCH  73  77
ENDBRANCH  72  74
BRANCH  72 119
ATOM    119  CB  MET A   6       4.425  16.390  16.672  0.00  0.00    +0.041 C 
BRANCH 119 120
ATOM    120  CG  MET A   6       5.358  16.267  15.477  0.00  0.00    +0.060 C 
BRANCH 120 121
ATOM    121  SD  MET A   6       5.068  14.790  14.465  0.00  0.00    -0.139 S 
ATOM    122  CE  MET A   6       5.833  13.567  15.490  0.00  0.00    +0.069 C 
ENDBRANCH 120 121
ENDBRANCH 119 120
ENDBRANCH  72 119
ENDBRANCH  68  72
ENDBRANCH  66  70
ENDBRANCH  62  66
ENDBRANCH   1  64
BRANCH   1 123
ATOM    123  CB  HIS A   8       1.116  13.363  21.786  0.00  0.00    +0.076 C 
BRANCH 123 124
ATOM    124  CG  HIS A   8      -0.208  12.704  21.559  0.00  0.00    +0.082 A 
ATOM    125  CD2 HIS A   8      -1.322  12.712  22.330  0.00  0.00    +0.115 A 
ATOM    126  NE2 HIS A   8      -2.272  11.981  21.658  0.00  0.00    -0.221 NA
ATOM    127  CE1 HIS A   8      -1.718  11.572  20.516  0.00  0.00    +0.199 A 
ATOM    128  ND1 HIS A   8      -0.466  11.983  20.409  0.00  0.00    -0.227 NA
ENDBRANCH 123 124
ENDBRANCH   1 123
TORSDOF 56
REMARK  Name = ../refined-set-2016/5e1s/5e1s_pocket.pdb
REMARK  218 active torsions:
REMARK  status: ('A' for Active; 'I' for Inactive)
REMARK    1  A    between atoms: _1  and  _3
REMARK    2  A    between atoms: _3  and  _4
REMARK    3  A    between atoms: _3  and  _6
REMARK    4  A    between atoms: _6  and  _7
REMARK    5  A    between atoms: _7  and  _8
REMARK    6  A    between atoms: _8  and  _9
REMARK    7  A    between atoms: _18  and  _20
REMARK    8  A    between atoms: _20  and  _21
REMARK    9  A    between atoms: _20  and  _23
REMARK   10  A    between atoms: _24  and  _25
REMARK   11  A    between atoms: _28  and  _30
REMARK   12  A    between atoms: _30  and  _31
REMARK   13  A    between atoms: _30  and  _33
REMARK   14  A    between atoms: _33  and  _34
REMARK   15  A    between atoms: _37  and  _39
REMARK   16  A    between atoms: _39  and  _40
REMARK   17  A    between atoms: _42  and  _44
REMARK   18  A    between atoms: _44  and  _45
REMARK   19  A    between atoms: _44  and  _47
REMARK   20  A    between atoms: _47  and  _48
REMARK   21  A    between atoms: _48  and  _49
REMARK   22  A    between atoms: _54  and  _56
REMARK   23  A    between atoms: _56  and  _57
REMARK   24  A    between atoms: _59  and  _61
REMARK   25  A    between atoms: _61  and  _62
REMARK   26  A    between atoms: _61  and  _64
REMARK   27  A    between atoms: _64  and  _65
REMARK   28  A    between atoms: _67  and  _69
REMARK   29  A    between atoms: _69  and  _70
REMARK   30  A    between atoms: _69  and  _72
REMARK   31  A    between atoms: _72  and  _73
REMARK   32  A    between atoms: _79  and  _81
REMARK   33  A    between atoms: _81  and  _82
REMARK   34  A    between atoms: _84  and  _86
REMARK   35  A    between atoms: _86  and  _87
REMARK   36  A    between atoms: _86  and  _89
REMARK   37  A    between atoms: _89  and  _90
REMARK   38  A    between atoms: _90  and  _91
REMARK   39  A    between atoms: _93  and  _95
REMARK   40  A    between atoms: _95  and  _96
REMARK   41  A    between atoms: _95  and  _98
REMARK   42  A    between atoms: _101  and  _103
REMARK   43  A    between atoms: _103  and  _104
REMARK   44  A    between atoms: _103  and  _106
REMARK   45  A    between atoms: _106  and  _107
REMARK   46  A    between atoms: _112  and  _113
REMARK   47  A    between atoms: _115  and  _117
REMARK   48  A    between atoms: _117  and  _118
REMARK   49  A    between atoms: _117  and  _120
REMARK   50  A    between atoms: _120  and  _121
REMARK   51  A    between atoms: _121  and  _122
REMARK   52  A    between atoms: _125  and  _127
REMARK   53  A    between atoms: _127  and  _128
REMARK   54  A    between atoms: _130  and  _132
REMARK   55  A    between atoms: _132  and  _133
REMARK   56  A    between atoms: _132  and  _135
REMARK   57  A    between atoms: _135  and  _136
REMARK   58  A    between atoms: _136  and  _137
REMARK   59  A    between atoms: _137  and  _138
REMARK   60  A    between atoms: _147  and  _149
REMARK   61  A    between atoms: _149  and  _150
REMARK   62  A    between atoms: _149  and  _152
REMARK   63  A    between atoms: _155  and  _157
REMARK   64  A    between atoms: _157  and  _158
REMARK   65  A    between atoms: _161  and  _163
REMARK   66  A    between atoms: _163  and  _164
REMARK   67  A    between atoms: _163  and  _166
REMARK   68  A    between atoms: _169  and  _171
REMARK   69  A    between atoms: _171  and  _172
REMARK   70  A    between atoms: _171  and  _174
REMARK   71  A    between atoms: _174  and  _175
REMARK   72  A    between atoms: _175  and  _176
REMARK   73  A    between atoms: _176  and  _177
REMARK   74  A    between atoms: _177  and  _178
REMARK   75  A    between atoms: _182  and  _184
REMARK   76  A    between atoms: _184  and  _185
REMARK   77  A    between atoms: _184  and  _187
REMARK   78  A    between atoms: _187  and  _188
REMARK   79  A    between atoms: _191  and  _193
REMARK   80  A    between atoms: _193  and  _194
REMARK   81  A    between atoms: _193  and  _196
REMARK   82  A    between atoms: _199  and  _201
REMARK   83  A    between atoms: _201  and  _202
REMARK   84  A    between atoms: _201  and  _204
REMARK   85  A    between atoms: _207  and  _209
REMARK   86  A    between atoms: _209  and  _210
REMARK   87  A    between atoms: _209  and  _212
REMARK   88  A    between atoms: _212  and  _213
REMARK   89  A    between atoms: _213  and  _214
REMARK   90  A    between atoms: _214  and  _215
REMARK   91  A    between atoms: _224  and  _226
REMARK   92  A    between atoms: _226  and  _227
REMARK   93  A    between atoms: _226  and  _229
REMARK   94  A    between atoms: _232  and  _234
REMARK   95  A    between atoms: _234  and  _235
REMARK   96  A    between atoms: _234  and  _237
REMARK   97  A    between atoms: _240  and  _242
REMARK   98  A    between atoms: _242  and  _243
REMARK   99  A    between atoms: _242  and  _245
REMARK  100  A    between atoms: _245  and  _246
REMARK  101  A    between atoms: _246  and  _247
REMARK  102  A    between atoms: _249  and  _251
REMARK  103  A    between atoms: _251  and  _252
REMARK  104  A    between atoms: _251  and  _254
REMARK  105  A    between atoms: _255  and  _256
REMARK  106  A    between atoms: _259  and  _261
REMARK  107  A    between atoms: _261  and  _262
REMARK  108  A    between atoms: _261  and  _264
REMARK  109  A    between atoms: _264  and  _265
REMARK  110  A    between atoms: _268  and  _270
REMARK  111  A    between atoms: _270  and  _271
REMARK  112  A    between atoms: _270  and  _273
REMARK  113  A    between atoms: _273  and  _274
REMARK  114  A    between atoms: _274  and  _275
REMARK  115  A    between atoms: _277  and  _279
REMARK  116  A    between atoms: _279  and  _280
REMARK  117  A    between atoms: _283  and  _285
REMARK  118  A    between atoms: _285  and  _286
REMARK  119  A    between atoms: _285  and  _288
REMARK  120  A    between atoms: _288  and  _289
REMARK  121  A    between atoms: _294  and  _296
REMARK  122  A    between atoms: _296  and  _297
REMARK  123  A    between atoms: _299  and  _301
REMARK  124  A    between atoms: _301  and  _302
REMARK  125  A    between atoms: _301  and  _304
REMARK  126  A    between atoms: _304  and  _305
REMARK  127  A    between atoms: _308  and  _310
REMARK  128  A    between atoms: _310  and  _311
REMARK  129  A    between atoms: _310  and  _313
REMARK  130  A    between atoms: _313  and  _314
REMARK  131  A    between atoms: _317  and  _319
REMARK  132  A    between atoms: _319  and  _320
REMARK  133  A    between atoms: _319  and  _322
REMARK  134  A    between atoms: _322  and  _323
REMARK  135  A    between atoms: _323  and  _324
REMARK  136  A    between atoms: _324  and  _325
REMARK  137  A    between atoms: _325  and  _326
REMARK  138  A    between atoms: _330  and  _332
REMARK  139  A    between atoms: _332  and  _333
REMARK  140  A    between atoms: _332  and  _335
REMARK  141  A    between atoms: _335  and  _336
REMARK  142  A    between atoms: _338  and  _340
REMARK  143  A    between atoms: _340  and  _341
REMARK  144  A    between atoms: _340  and  _343
REMARK  145  A    between atoms: _343  and  _344
REMARK  146  A    between atoms: _349  and  _350
REMARK  147  A    between atoms: _352  and  _354
REMARK  148  A    between atoms: _354  and  _355
REMARK  149  A    between atoms: _354  and  _357
REMARK  150  A    between atoms: _357  and  _358
REMARK  151  A    between atoms: _360  and  _362
REMARK  152  A    between atoms: _362  and  _363
REMARK  153  A    between atoms: _362  and  _365
REMARK  154  A    between atoms: _365  and  _366
REMARK  155  A    between atoms: _369  and  _371
REMARK  156  A    between atoms: _371  and  _372
REMARK  157  A    between atoms: _371  and  _374
REMARK  158  A    between atoms: _374  and  _375
REMARK  159  A    between atoms: _375  and  _376
REMARK  160  A    between atoms: _379  and  _381
REMARK  161  A    between atoms: _381  and  _382
REMARK  162  A    between atoms: _381  and  _384
REMARK  163  A    between atoms: _384  and  _385
REMARK  164  A    between atoms: _390  and  _392
REMARK  165  A    between atoms: _392  and  _393
REMARK  166  A    between atoms: _392  and  _395
REMARK  167  A    between atoms: _395  and  _396
REMARK  168  A    between atoms: _402  and  _403
REMARK  169  A    between atoms: _408  and  _410
REMARK  170  A    between atoms: _410  and  _411
REMARK  171  A    between atoms: _413  and  _415
REMARK  172  A    between atoms: _415  and  _416
REMARK  173  A    between atoms: _415  and  _418
REMARK  174  A    between atoms: _418  and  _419
REMARK  175  A    between atoms: _419  and  _420
REMARK  176  A    between atoms: _420  and  _421
REMARK  177  A    between atoms: _430  and  _432
REMARK  178  A    between atoms: _432  and  _433
REMARK  179  A    between atoms: _432  and  _435
REMARK  180  A    between atoms: _435  and  _436
REMARK  181  A    between atoms: _436  and  _437
REMARK  182  A    between atoms: _437  and  _438
REMARK  183  A    between atoms: _447  and  _449
REMARK  184  A    between atoms: _449  and  _450
REMARK  185  A    between atoms: _449  and  _452
REMARK  186  A    between atoms: _452  and  _453
REMARK  187  A    between atoms: _458  and  _460
REMARK  188  A    between atoms: _460  and  _461
REMARK  189  A    between atoms: _460  and  _463
REMARK  190  A    between atoms: _465  and  _467
REMARK  191  A    between atoms: _467  and  _468
REMARK  192  A    between atoms: _467  and  _470
REMARK  193  A    between atoms: _470  and  _471
REMARK  194  A    between atoms: _471  and  _472
REMARK  195  A    between atoms: _474  and  _476
REMARK  196  A    between atoms: _476  and  _477
REMARK  197  A    between atoms: _476  and  _479
REMARK  198  A    between atoms: _482  and  _484
REMARK  199  A    between atoms: _484  and  _485
REMARK  200  A    between atoms: _484  and  _487
REMARK  201  A    between atoms: _487  and  _488
REMARK  202  A    between atoms: _488  and  _489
REMARK  203  A    between atoms: _489  and  _490
REMARK  204  A    between atoms: _490  and  _491
REMARK  205  A    between atoms: _495  and  _497
REMARK  206  A    between atoms: _497  and  _498
REMARK  207  A    between atoms: _497  and  _500
REMARK  208  A    between atoms: _500  and  _501
REMARK  209  A    between atoms: _504  and  _506
REMARK  210  A    between atoms: _506  and  _507
REMARK  211  A    between atoms: _509  and  _511
REMARK  212  A    between atoms: _511  and  _512
REMARK  213  A    between atoms: _511  and  _514
REMARK  214  A    between atoms: _514  and  _515
REMARK  215  A    between atoms: _518  and  _520
REMARK  216  A    between atoms: _520  and  _521
REMARK  217  A    between atoms: _520  and  _523
REMARK  218  A    between atoms: _523  and  _524
REMARK                            x       y       z     vdW  Elec       q    Type
REMARK                         _______ _______ _______ _____ _____    ______ ____
ROOT
ATOM      1  C   SER A   1       1.629  11.204  31.947  0.00  0.00    +0.241 C 
ATOM      2  O   SER A   1       0.513  11.018  32.428  0.00  0.00    -0.274 OA
ATOM      3  N   LEU A   2       2.473  10.194  31.632  0.00  0.00    -0.298 N 
ATOM      4  H   LEU A   2       3.400  10.443  31.231  0.00  0.00    +0.150 HD
ENDROOT
BRANCH   1   5
ATOM      5  CA  SER A   1       2.107  12.647  31.689  0.00  0.00    +0.174 C 
BRANCH   5   6
ATOM      6  N   SER A   1       3.563  12.743  31.558  0.00  0.00    -0.236 NA
ATOM      7  H   SER A   1       3.961  12.934  30.616  0.00  0.00    +0.142 HD
ENDBRANCH   5   6
BRANCH   5   8
ATOM      8  CB  SER A   1       1.415  13.242  30.465  0.00  0.00    +0.163 C 
BRANCH   8   9
ATOM      9  OG  SER A   1       1.525  12.410  29.321  0.00  0.00    -0.380 OA
ATOM     10  H   SER A   1       2.481  12.281  29.099  0.00  0.00    +0.211 HD
ENDBRANCH   8   9
ENDBRANCH   5   8
ENDBRANCH   1   5
BRANCH   3  11
ATOM     11  CA  LEU A   2       2.166   8.769  31.820  0.00  0.00    +0.137 C 
BRANCH  11  12
ATOM     12  C   LEU A   2       2.593   8.247  33.202  0.00  0.00    +0.227 C 
ATOM     13  O   LEU A   2       2.392   7.065  33.511  0.00  0.00    -0.286 OA
ENDBRANCH  11  12
BRANCH  11  14
ATOM     14  CB  LEU A   2       2.778   7.916  30.689  0.00  0.00    +0.028 C 
BRANCH  14  15
ATOM     15  CG  LEU A   2       2.352   8.231  29.251  0.00  0.00    +0.002 C 
ATOM     16  CD2 LEU A   2       0.875   7.921  29.009  0.00  0.00    +0.000 C 
ATOM     17  CD1 LEU A   2       3.197   7.465  28.274  0.00  0.00    +0.000 C 
ENDBRANCH  14  15
ENDBRANCH  11  14
ENDBRANCH   3  11
TORSDOF 8
REMARK  Name = ../refined-set-2016/5e1s/5e1s_pocket.pdb
REMARK  218 active torsions:
REMARK  status: ('A' for Active; 'I' for Inactive)
REMARK    1  A    between atoms: _1  and  _3
REMARK    2  A    between atoms: _3  and  _4
REMARK    3  A    between atoms: _3  and  _6
REMARK    4  A    between atoms: _6  and  _7
REMARK    5  A    between atoms: _7  and  _8
REMARK    6  A    between atoms: _8  and  _9
REMARK    7  A    between atoms: _18  and  _20
REMARK    8  A    between atoms: _20  and  _21
REMARK    9  A    between atoms: _20  and  _23
REMARK   10  A    between atoms: _24  and  _25
REMARK   11  A    between atoms: _28  and  _30
REMARK   12  A    between atoms: _30  and  _31
REMARK   13  A    between atoms: _30  and  _33
REMARK   14  A    between atoms: _33  and  _34
REMARK   15  A    between atoms: _37  and  _39
REMARK   16  A    between atoms: _39  and  _40
REMARK   17  A    between atoms: _42  and  _44
REMARK   18  A    between atoms: _44  and  _45
REMARK   19  A    between atoms: _44  and  _47
REMARK   20  A    between atoms: _47  and  _48
REMARK   21  A    between atoms: _48  and  _49
REMARK   22  A    between atoms: _54  and  _56
REMARK   23  A    between atoms: _56  and  _57
REMARK   24  A    between atoms: _59  and  _61
REMARK   25  A    between atoms: _61  and  _62
REMARK   26  A    between atoms: _61  and  _64
REMARK   27  A    between atoms: _64  and  _65
REMARK   28  A    between atoms: _67  and  _69
REMARK   29  A    between atoms: _69  and  _70
REMARK   30  A    between atoms: _69  and  _72
REMARK   31  A    between atoms: _72  and  _73
REMARK   32  A    between atoms: _79  and  _81
REMARK   33  A    between atoms: _81  and  _82
REMARK   34  A    between atoms: _84  and  _86
REMARK   35  A    between atoms: _86  and  _87
REMARK   36  A    between atoms: _86  and  _89
REMARK   37  A    between atoms: _89  and  _90
REMARK   38  A    between atoms: _90  and  _91
REMARK   39  A    between atoms: _93  and  _95
REMARK   40  A    between atoms: _95  and  _96
REMARK   41  A    between atoms: _95  and  _98
REMARK   42  A    between atoms: _101  and  _103
REMARK   43  A    between atoms: _103  and  _104
REMARK   44  A    between atoms: _103  and  _106
REMARK   45  A    between atoms: _106  and  _107
REMARK   46  A    between atoms: _112  and  _113
REMARK   47  A    between atoms: _115  and  _117
REMARK   48  A    between atoms: _117  and  _118
REMARK   49  A    between atoms: _117  and  _120
REMARK   50  A    between atoms: _120  and  _121
REMARK   51  A    between atoms: _121  and  _122
REMARK   52  A    between atoms: _125  and  _127
REMARK   53  A    between atoms: _127  and  _128
REMARK   54  A    between atoms: _130  and  _132
REMARK   55  A    between atoms: _132  and  _133
REMARK   56  A    between atoms: _132  and  _135
REMARK   57  A    between atoms: _135  and  _136
REMARK   58  A    between atoms: _136  and  _137
REMARK   59  A    between atoms: _137  and  _138
REMARK   60  A    between atoms: _147  and  _149
REMARK   61  A    between atoms: _149  and  _150
REMARK   62  A    between atoms: _149  and  _152
REMARK   63  A    between atoms: _155  and  _157
REMARK   64  A    between atoms: _157  and  _158
REMARK   65  A    between atoms: _161  and  _163
REMARK   66  A    between atoms: _163  and  _164
REMARK   67  A    between atoms: _163  and  _166
REMARK   68  A    between atoms: _169  and  _171
REMARK   69  A    between atoms: _171  and  _172
REMARK   70  A    between atoms: _171  and  _174
REMARK   71  A    between atoms: _174  and  _175
REMARK   72  A    between atoms: _175  and  _176
REMARK   73  A    between atoms: _176  and  _177
REMARK   74  A    between atoms: _177  and  _178
REMARK   75  A    between atoms: _182  and  _184
REMARK   76  A    between atoms: _184  and  _185
REMARK   77  A    between atoms: _184  and  _187
REMARK   78  A    between atoms: _187  and  _188
REMARK   79  A    between atoms: _191  and  _193
REMARK   80  A    between atoms: _193  and  _194
REMARK   81  A    between atoms: _193  and  _196
REMARK   82  A    between atoms: _199  and  _201
REMARK   83  A    between atoms: _201  and  _202
REMARK   84  A    between atoms: _201  and  _204
REMARK   85  A    between atoms: _207  and  _209
REMARK   86  A    between atoms: _209  and  _210
REMARK   87  A    between atoms: _209  and  _212
REMARK   88  A    between atoms: _212  and  _213
REMARK   89  A    between atoms: _213  and  _214
REMARK   90  A    between atoms: _214  and  _215
REMARK   91  A    between atoms: _224  and  _226
REMARK   92  A    between atoms: _226  and  _227
REMARK   93  A    between atoms: _226  and  _229
REMARK   94  A    between atoms: _232  and  _234
REMARK   95  A    between atoms: _234  and  _235
REMARK   96  A    between atoms: _234  and  _237
REMARK   97  A    between atoms: _240  and  _242
REMARK   98  A    between atoms: _242  and  _243
REMARK   99  A    between atoms: _242  and  _245
REMARK  100  A    between atoms: _245  and  _246
REMARK  101  A    between atoms: _246  and  _247
REMARK  102  A    between atoms: _249  and  _251
REMARK  103  A    between atoms: _251  and  _252
REMARK  104  A    between atoms: _251  and  _254
REMARK  105  A    between atoms: _255  and  _256
REMARK  106  A    between atoms: _259  and  _261
REMARK  107  A    between atoms: _261  and  _262
REMARK  108  A    between atoms: _261  and  _264
REMARK  109  A    between atoms: _264  and  _265
REMARK  110  A    between atoms: _268  and  _270
REMARK  111  A    between atoms: _270  and  _271
REMARK  112  A    between atoms: _270  and  _273
REMARK  113  A    between atoms: _273  and  _274
REMARK  114  A    between atoms: _274  and  _275
REMARK  115  A    between atoms: _277  and  _279
REMARK  116  A    between atoms: _279  and  _280
REMARK  117  A    between atoms: _283  and  _285
REMARK  118  A    between atoms: _285  and  _286
REMARK  119  A    between atoms: _285  and  _288
REMARK  120  A    between atoms: _288  and  _289
REMARK  121  A    between atoms: _294  and  _296
REMARK  122  A    between atoms: _296  and  _297
REMARK  123  A    between atoms: _299  and  _301
REMARK  124  A    between atoms: _301  and  _302
REMARK  125  A    between atoms: _301  and  _304
REMARK  126  A    between atoms: _304  and  _305
REMARK  127  A    between atoms: _308  and  _310
REMARK  128  A    between atoms: _310  and  _311
REMARK  129  A    between atoms: _310  and  _313
REMARK  130  A    between atoms: _313  and  _314
REMARK  131  A    between atoms: _317  and  _319
REMARK  132  A    between atoms: _319  and  _320
REMARK  133  A    between atoms: _319  and  _322
REMARK  134  A    between atoms: _322  and  _323
REMARK  135  A    between atoms: _323  and  _324
REMARK  136  A    between atoms: _324  and  _325
REMARK  137  A    between atoms: _325  and  _326
REMARK  138  A    between atoms: _330  and  _332
REMARK  139  A    between atoms: _332  and  _333
REMARK  140  A    between atoms: _332  and  _335
REMARK  141  A    between atoms: _335  and  _336
REMARK  142  A    between atoms: _338  and  _340
REMARK  143  A    between atoms: _340  and  _341
REMARK  144  A    between atoms: _340  and  _343
REMARK  145  A    between atoms: _343  and  _344
REMARK  146  A    between atoms: _349  and  _350
REMARK  147  A    between atoms: _352  and  _354
REMARK  148  A    between atoms: _354  and  _355
REMARK  149  A    between atoms: _354  and  _357
REMARK  150  A    between atoms: _357  and  _358
REMARK  151  A    between atoms: _360  and  _362
REMARK  152  A    between atoms: _362  and  _363
REMARK  153  A    between atoms: _362  and  _365
REMARK  154  A    between atoms: _365  and  _366
REMARK  155  A    between atoms: _369  and  _371
REMARK  156  A    between atoms: _371  and  _372
REMARK  157  A    between atoms: _371  and  _374
REMARK  158  A    between atoms: _374  and  _375
REMARK  159  A    between atoms: _375  and  _376
REMARK  160  A    between atoms: _379  and  _381
REMARK  161  A    between atoms: _381  and  _382
REMARK  162  A    between atoms: _381  and  _384
REMARK  163  A    between atoms: _384  and  _385
REMARK  164  A    between atoms: _390  and  _392
REMARK  165  A    between atoms: _392  and  _393
REMARK  166  A    between atoms: _392  and  _395
REMARK  167  A    between atoms: _395  and  _396
REMARK  168  A    between atoms: _402  and  _403
REMARK  169  A    between atoms: _408  and  _410
REMARK  170  A    between atoms: _410  and  _411
REMARK  171  A    between atoms: _413  and  _415
REMARK  172  A    between atoms: _415  and  _416
REMARK  173  A    between atoms: _415  and  _418
REMARK  174  A    between atoms: _418  and  _419
REMARK  175  A    between atoms: _419  and  _420
REMARK  176  A    between atoms: _420  and  _421
REMARK  177  A    between atoms: _430  and  _432
REMARK  178  A    between atoms: _432  and  _433
REMARK  179  A    between atoms: _432  and  _435
REMARK  180  A    between atoms: _435  and  _436
REMARK  181  A    between atoms: _436  and  _437
REMARK  182  A    between atoms: _437  and  _438
REMARK  183  A    between atoms: _447  and  _449
REMARK  184  A    between atoms: _449  and  _450
REMARK  185  A    between atoms: _449  and  _452
REMARK  186  A    between atoms: _452  and  _453
REMARK  187  A    between atoms: _458  and  _460
REMARK  188  A    between atoms: _460  and  _461
REMARK  189  A    between atoms: _460  and  _463
REMARK  190  A    between atoms: _465  and  _467
REMARK  191  A    between atoms: _467  and  _468
REMARK  192  A    between atoms: _467  and  _470
REMARK  193  A    between atoms: _470  and  _471
REMARK  194  A    between atoms: _471  and  _472
REMARK  195  A    between atoms: _474  and  _476
REMARK  196  A    between atoms: _476  and  _477
REMARK  197  A    between atoms: _476  and  _479
REMARK  198  A    between atoms: _482  and  _484
REMARK  199  A    between atoms: _484  and  _485
REMARK  200  A    between atoms: _484  and  _487
REMARK  201  A    between atoms: _487  and  _488
REMARK  202  A    between atoms: _488  and  _489
REMARK  203  A    between atoms: _489  and  _490
REMARK  204  A    between atoms: _490  and  _491
REMARK  205  A    between atoms: _495  and  _497
REMARK  206  A    between atoms: _497  and  _498
REMARK  207  A    between atoms: _497  and  _500
REMARK  208  A    between atoms: _500  and  _501
REMARK  209  A    between atoms: _504  and  _506
REMARK  210  A    between atoms: _506  and  _507
REMARK  211  A    between atoms: _509  and  _511
REMARK  212  A    between atoms: _511  and  _512
REMARK  213  A    between atoms: _511  and  _514
REMARK  214  A    between atoms: _514  and  _515
REMARK  215  A    between atoms: _518  and  _520
REMARK  216  A    between atoms: _520  and  _521
REMARK  217  A    between atoms: _520  and  _523
REMARK  218  A    between atoms: _523  and  _524
REMARK                            x       y       z     vdW  Elec       q    Type
REMARK                         _______ _______ _______ _____ _____    ______ ____
ROOT
ATOM      1  C   ASN A   3      -3.865  11.287  32.225  0.00  0.00    +0.244 C 
ATOM      2  O   ASN A   3      -5.017  11.487  32.619  0.00  0.00    -0.273 OA
ATOM      3  N   PRO A   4      -3.603  10.879  30.958  0.00  0.00    -0.272 N 
ATOM      4  CD  PRO A   4      -2.292  10.618  30.323  0.00  0.00    +0.094 C 
ATOM      5  CG  PRO A   4      -2.628  10.380  28.879  0.00  0.00    +0.024 C 
ATOM      6  CB  PRO A   4      -4.041  10.783  28.644  0.00  0.00    +0.031 C 
ATOM      7  CA  PRO A   4      -4.716  10.663  30.013  0.00  0.00    +0.152 C 
ENDROOT
BRANCH   7   8
ATOM      8  C   PRO A   4      -5.502   9.353  30.177  0.00  0.00    +0.241 C 
ATOM      9  N   GLY A   5      -5.277   8.650  31.288  0.00  0.00    -0.295 N 
ATOM     10  H   GLY A   5      -4.594   9.027  31.976  0.00  0.00    +0.150 HD
ATOM     11  O   PRO A   4      -6.325   9.022  29.315  0.00  0.00    -0.273 OA
BRANCH   9  12
ATOM     12  CA  GLY A   5      -5.933   7.384  31.595  0.00  0.00    +0.176 C 
BRANCH  12  13
ATOM     13  C   GLY A   5      -5.384   6.231  30.779  0.00  0.00    +0.243 C 
ATOM     14  O   GLY A   5      -6.110   5.279  30.480  0.00  0.00    -0.273 OA
ATOM     15  N   ARG A   6      -4.098   6.325  30.403  0.00  0.00    -0.298 N 
ATOM     16  H   ARG A   6      -3.573   7.171  30.703  0.00  0.00    +0.150 HD
BRANCH  15  17
ATOM     17  CA  ARG A   6      -3.374   5.332  29.604  0.00  0.00    +0.137 C 
BRANCH  17  18
ATOM     18  C   ARG A   6      -2.235   4.734  30.447  0.00  0.00    +0.227 C 
ATOM     19  O   ARG A   6      -1.682   5.451  31.287  0.00  0.00    -0.286 OA
ENDBRANCH  17  18
BRANCH  17  20
ATOM     20  CB  ARG A   6      -2.757   5.990  28.349  0.00  0.00    +0.031 C 
BRANCH  20  21
ATOM     21  CG  ARG A   6      -3.730   6.697  27.408  0.00  0.00    +0.045 C 
BRANCH  21  22
ATOM     22  CD  ARG A   6      -2.985   7.286  26.222  0.00  0.00    +0.174 C 
BRANCH  22  23
ATOM     23  NE  ARG A   6      -3.793   8.245  25.466  0.00  0.00    -0.265 N 
ATOM     24  HE  ARG A   6      -4.755   7.960  25.193  0.00  0.00    +0.259 HD
ATOM     25  CZ  ARG A   6      -3.378   9.455  25.105  0.00  0.00    +0.342 C 
ATOM     26  NH2 ARG A   6      -2.160   9.873  25.431  0.00  0.00    -0.292 N 
ATOM     27 HH21 ARG A   6      -1.525   9.252  25.972  0.00  0.00    +0.255 HD
ATOM     28 HH22 ARG A   6      -1.842  10.821  25.145  0.00  0.00    +0.255 HD
ATOM     29  NH1 ARG A   6      -4.176  10.256  24.411  0.00  0.00    -0.292 N 
ATOM     30 HH11 ARG A   6      -5.130   9.938  24.147  0.00  0.00    +0.255 HD
ATOM     31 HH12 ARG A   6      -3.847  11.202  24.131  0.00  0.00    +0.255 HD
ENDBRANCH  22  23
ENDBRANCH  21  22
ENDBRANCH  20  21
ENDBRANCH  17  20
ENDBRANCH  15  17
ENDBRANCH  12  13
ENDBRANCH   9  12
ENDBRANCH   7   8
BRANCH   1  32
ATOM     32  CA  ASN A   3      -2.681  11.556  33.172  0.00  0.00    +0.158 C 
BRANCH  32  34
ATOM     33  C   ASN A   2      -2.487  13.987  32.815  0.00  0.00    +0.241 C 
ATOM     34  N   ASN A   3      -2.714  12.943  33.645  0.00  0.00    -0.297 N 
ATOM     35  H   ASN A   3      -2.918  13.130  34.648  0.00  0.00    +0.150 HD
ATOM     36  O   ASN A   2      -2.234  13.836  31.622  0.00  0.00    -0.273 OA
BRANCH  33  37
ATOM     37  CA  ASN A   2      -2.578  15.407  33.403  0.00  0.00    +0.158 C 
BRANCH  37  40
ATOM     38  C   GLU A   1      -2.856  15.518  35.871  0.00  0.00    +0.238 C 
ATOM     39  O   GLU A   1      -4.086  15.490  35.831  0.00  0.00    -0.274 OA
ATOM     40  N   ASN A   2      -2.080  15.482  34.774  0.00  0.00    -0.297 N 
ATOM     41  H   ASN A   2      -1.050  15.510  34.912  0.00  0.00    +0.150 HD
BRANCH  38  42
ATOM     42  CA  GLU A   1      -2.134  15.605  37.220  0.00  0.00    +0.145 C 
BRANCH  42  43
ATOM     43  N   GLU A   1      -0.827  14.945  37.156  0.00  0.00    -0.238 NA
ATOM     44  H   GLU A   1       0.016  15.551  37.212  0.00  0.00    +0.142 HD
ENDBRANCH  42  43
BRANCH  42  45
ATOM     45  CB  GLU A   1      -1.968  17.080  37.626  0.00  0.00    +0.038 C 
BRANCH  45  46
ATOM     46  CG  GLU A   1      -1.630  17.291  39.093  0.00  0.00    +0.116 C 
BRANCH  46  47
ATOM     47  CD  GLU A   1      -1.181  18.695  39.450  0.00  0.00    +0.365 C 
ATOM     48  OE2 GLU A   1      -0.075  18.833  40.020  0.00  0.00    -0.246 OA
ATOM     49  OE1 GLU A   1      -1.943  19.654  39.187  0.00  0.00    -0.246 OA
ENDBRANCH  46  47
ENDBRANCH  45  46
ENDBRANCH  42  45
ENDBRANCH  38  42
ENDBRANCH  37  40
BRANCH  37  50
ATOM     50  CB  ASN A   2      -1.867  16.451  32.516  0.00  0.00    +0.114 C 
BRANCH  50  51
ATOM     51  CG  ASN A   2      -0.366  16.282  32.358  0.00  0.00    +0.222 C 
ATOM     52  OD1 ASN A   2       0.325  15.646  33.165  0.00  0.00    -0.275 OA
ATOM     53  ND2 ASN A   2       0.174  16.876  31.310  0.00  0.00    -0.329 N 
ATOM     54 HD21 ASN A   2       1.200  16.815  31.149  0.00  0.00    +0.145 HD
ATOM     55 HD22 ASN A   2      -0.426  17.405  30.645  0.00  0.00    +0.145 HD
ENDBRANCH  50  51
ENDBRANCH  37  50
ENDBRANCH  33  37
ENDBRANCH  32  34
BRANCH  32  56
ATOM     56  CB  ASN A   3      -2.630  10.553  34.325  0.00  0.00    +0.114 C 
BRANCH  56  57
ATOM     57  CG  ASN A   3      -2.185   9.171  33.905  0.00  0.00    +0.222 C 
ATOM     58  ND2 ASN A   3      -0.967   8.806  34.268  0.00  0.00    -0.329 N 
ATOM     59 HD21 ASN A   3      -0.366   9.463  34.805  0.00  0.00    +0.145 HD
ATOM     60 HD22 ASN A   3      -0.610   7.862  34.017  0.00  0.00    +0.145 HD
ATOM     61  OD1 ASN A   3      -2.923   8.411  33.266  0.00  0.00    -0.275 OA
ENDBRANCH  56  57
ENDBRANCH  32  56
ENDBRANCH   1  32
TORSDOF 22
REMARK  Name = ../refined-set-2016/5e1s/5e1s_pocket.pdb
REMARK  218 active torsions:
REMARK  status: ('A' for Active; 'I' for Inactive)
REMARK    1  A    between atoms: _1  and  _3
REMARK    2  A    between atoms: _3  and  _4
REMARK    3  A    between atoms: _3  and  _6
REMARK    4  A    between atoms: _6  and  _7
REMARK    5  A    between atoms: _7  and  _8
REMARK    6  A    between atoms: _8  and  _9
REMARK    7  A    between atoms: _18  and  _20
REMARK    8  A    between atoms: _20  and  _21
REMARK    9  A    between atoms: _20  and  _23
REMARK   10  A    between atoms: _24  and  _25
REMARK   11  A    between atoms: _28  and  _30
REMARK   12  A    between atoms: _30  and  _31
REMARK   13  A    between atoms: _30  and  _33
REMARK   14  A    between atoms: _33  and  _34
REMARK   15  A    between atoms: _37  and  _39
REMARK   16  A    between atoms: _39  and  _40
REMARK   17  A    between atoms: _42  and  _44
REMARK   18  A    between atoms: _44  and  _45
REMARK   19  A    between atoms: _44  and  _47
REMARK   20  A    between atoms: _47  and  _48
REMARK   21  A    between atoms: _48  and  _49
REMARK   22  A    between atoms: _54  and  _56
REMARK   23  A    between atoms: _56  and  _57
REMARK   24  A    between atoms: _59  and  _61
REMARK   25  A    between atoms: _61  and  _62
REMARK   26  A    between atoms: _61  and  _64
REMARK   27  A    between atoms: _64  and  _65
REMARK   28  A    between atoms: _67  and  _69
REMARK   29  A    between atoms: _69  and  _70
REMARK   30  A    between atoms: _69  and  _72
REMARK   31  A    between atoms: _72  and  _73
REMARK   32  A    between atoms: _79  and  _81
REMARK   33  A    between atoms: _81  and  _82
REMARK   34  A    between atoms: _84  and  _86
REMARK   35  A    between atoms: _86  and  _87
REMARK   36  A    between atoms: _86  and  _89
REMARK   37  A    between atoms: _89  and  _90
REMARK   38  A    between atoms: _90  and  _91
REMARK   39  A    between atoms: _93  and  _95
REMARK   40  A    between atoms: _95  and  _96
REMARK   41  A    between atoms: _95  and  _98
REMARK   42  A    between atoms: _101  and  _103
REMARK   43  A    between atoms: _103  and  _104
REMARK   44  A    between atoms: _103  and  _106
REMARK   45  A    between atoms: _106  and  _107
REMARK   46  A    between atoms: _112  and  _113
REMARK   47  A    between atoms: _115  and  _117
REMARK   48  A    between atoms: _117  and  _118
REMARK   49  A    between atoms: _117  and  _120
REMARK   50  A    between atoms: _120  and  _121
REMARK   51  A    between atoms: _121  and  _122
REMARK   52  A    between atoms: _125  and  _127
REMARK   53  A    between atoms: _127  and  _128
REMARK   54  A    between atoms: _130  and  _132
REMARK   55  A    between atoms: _132  and  _133
REMARK   56  A    between atoms: _132  and  _135
REMARK   57  A    between atoms: _135  and  _136
REMARK   58  A    between atoms: _136  and  _137
REMARK   59  A    between atoms: _137  and  _138
REMARK   60  A    between atoms: _147  and  _149
REMARK   61  A    between atoms: _149  and  _150
REMARK   62  A    between atoms: _149  and  _152
REMARK   63  A    between atoms: _155  and  _157
REMARK   64  A    between atoms: _157  and  _158
REMARK   65  A    between atoms: _161  and  _163
REMARK   66  A    between atoms: _163  and  _164
REMARK   67  A    between atoms: _163  and  _166
REMARK   68  A    between atoms: _169  and  _171
REMARK   69  A    between atoms: _171  and  _172
REMARK   70  A    between atoms: _171  and  _174
REMARK   71  A    between atoms: _174  and  _175
REMARK   72  A    between atoms: _175  and  _176
REMARK   73  A    between atoms: _176  and  _177
REMARK   74  A    between atoms: _177  and  _178
REMARK   75  A    between atoms: _182  and  _184
REMARK   76  A    between atoms: _184  and  _185
REMARK   77  A    between atoms: _184  and  _187
REMARK   78  A    between atoms: _187  and  _188
REMARK   79  A    between atoms: _191  and  _193
REMARK   80  A    between atoms: _193  and  _194
REMARK   81  A    between atoms: _193  and  _196
REMARK   82  A    between atoms: _199  and  _201
REMARK   83  A    between atoms: _201  and  _202
REMARK   84  A    between atoms: _201  and  _204
REMARK   85  A    between atoms: _207  and  _209
REMARK   86  A    between atoms: _209  and  _210
REMARK   87  A    between atoms: _209  and  _212
REMARK   88  A    between atoms: _212  and  _213
REMARK   89  A    between atoms: _213  and  _214
REMARK   90  A    between atoms: _214  and  _215
REMARK   91  A    between atoms: _224  and  _226
REMARK   92  A    between atoms: _226  and  _227
REMARK   93  A    between atoms: _226  and  _229
REMARK   94  A    between atoms: _232  and  _234
REMARK   95  A    between atoms: _234  and  _235
REMARK   96  A    between atoms: _234  and  _237
REMARK   97  A    between atoms: _240  and  _242
REMARK   98  A    between atoms: _242  and  _243
REMARK   99  A    between atoms: _242  and  _245
REMARK  100  A    between atoms: _245  and  _246
REMARK  101  A    between atoms: _246  and  _247
REMARK  102  A    between atoms: _249  and  _251
REMARK  103  A    between atoms: _251  and  _252
REMARK  104  A    between atoms: _251  and  _254
REMARK  105  A    between atoms: _255  and  _256
REMARK  106  A    between atoms: _259  and  _261
REMARK  107  A    between atoms: _261  and  _262
REMARK  108  A    between atoms: _261  and  _264
REMARK  109  A    between atoms: _264  and  _265
REMARK  110  A    between atoms: _268  and  _270
REMARK  111  A    between atoms: _270  and  _271
REMARK  112  A    between atoms: _270  and  _273
REMARK  113  A    between atoms: _273  and  _274
REMARK  114  A    between atoms: _274  and  _275
REMARK  115  A    between atoms: _277  and  _279
REMARK  116  A    between atoms: _279  and  _280
REMARK  117  A    between atoms: _283  and  _285
REMARK  118  A    between atoms: _285  and  _286
REMARK  119  A    between atoms: _285  and  _288
REMARK  120  A    between atoms: _288  and  _289
REMARK  121  A    between atoms: _294  and  _296
REMARK  122  A    between atoms: _296  and  _297
REMARK  123  A    between atoms: _299  and  _301
REMARK  124  A    between atoms: _301  and  _302
REMARK  125  A    between atoms: _301  and  _304
REMARK  126  A    between atoms: _304  and  _305
REMARK  127  A    between atoms: _308  and  _310
REMARK  128  A    between atoms: _310  and  _311
REMARK  129  A    between atoms: _310  and  _313
REMARK  130  A    between atoms: _313  and  _314
REMARK  131  A    between atoms: _317  and  _319
REMARK  132  A    between atoms: _319  and  _320
REMARK  133  A    between atoms: _319  and  _322
REMARK  134  A    between atoms: _322  and  _323
REMARK  135  A    between atoms: _323  and  _324
REMARK  136  A    between atoms: _324  and  _325
REMARK  137  A    between atoms: _325  and  _326
REMARK  138  A    between atoms: _330  and  _332
REMARK  139  A    between atoms: _332  and  _333
REMARK  140  A    between atoms: _332  and  _335
REMARK  141  A    between atoms: _335  and  _336
REMARK  142  A    between atoms: _338  and  _340
REMARK  143  A    between atoms: _340  and  _341
REMARK  144  A    between atoms: _340  and  _343
REMARK  145  A    between atoms: _343  and  _344
REMARK  146  A    between atoms: _349  and  _350
REMARK  147  A    between atoms: _352  and  _354
REMARK  148  A    between atoms: _354  and  _355
REMARK  149  A    between atoms: _354  and  _357
REMARK  150  A    between atoms: _357  and  _358
REMARK  151  A    between atoms: _360  and  _362
REMARK  152  A    between atoms: _362  and  _363
REMARK  153  A    between atoms: _362  and  _365
REMARK  154  A    between atoms: _365  and  _366
REMARK  155  A    between atoms: _369  and  _371
REMARK  156  A    between atoms: _371  and  _372
REMARK  157  A    between atoms: _371  and  _374
REMARK  158  A    between atoms: _374  and  _375
REMARK  159  A    between atoms: _375  and  _376
REMARK  160  A    between atoms: _379  and  _381
REMARK  161  A    between atoms: _381  and  _382
REMARK  162  A    between atoms: _381  and  _384
REMARK  163  A    between atoms: _384  and  _385
REMARK  164  A    between atoms: _390  and  _392
REMARK  165  A    between atoms: _392  and  _393
REMARK  166  A    between atoms: _392  and  _395
REMARK  167  A    between atoms: _395  and  _396
REMARK  168  A    between atoms: _402  and  _403
REMARK  169  A    between atoms: _408  and  _410
REMARK  170  A    between atoms: _410  and  _411
REMARK  171  A    between atoms: _413  and  _415
REMARK  172  A    between atoms: _415  and  _416
REMARK  173  A    between atoms: _415  and  _418
REMARK  174  A    between atoms: _418  and  _419
REMARK  175  A    between atoms: _419  and  _420
REMARK  176  A    between atoms: _420  and  _421
REMARK  177  A    between atoms: _430  and  _432
REMARK  178  A    between atoms: _432  and  _433
REMARK  179  A    between atoms: _432  and  _435
REMARK  180  A    between atoms: _435  and  _436
REMARK  181  A    between atoms: _436  and  _437
REMARK  182  A    between atoms: _437  and  _438
REMARK  183  A    between atoms: _447  and  _449
REMARK  184  A    between atoms: _449  and  _450
REMARK  185  A    between atoms: _449  and  _452
REMARK  186  A    between atoms: _452  and  _453
REMARK  187  A    between atoms: _458  and  _460
REMARK  188  A    between atoms: _460  and  _461
REMARK  189  A    between atoms: _460  and  _463
REMARK  190  A    between atoms: _465  and  _467
REMARK  191  A    between atoms: _467  and  _468
REMARK  192  A    between atoms: _467  and  _470
REMARK  193  A    between atoms: _470  and  _471
REMARK  194  A    between atoms: _471  and  _472
REMARK  195  A    between atoms: _474  and  _476
REMARK  196  A    between atoms: _476  and  _477
REMARK  197  A    between atoms: _476  and  _479
REMARK  198  A    between atoms: _482  and  _484
REMARK  199  A    between atoms: _484  and  _485
REMARK  200  A    between atoms: _484  and  _487
REMARK  201  A    between atoms: _487  and  _488
REMARK  202  A    between atoms: _488  and  _489
REMARK  203  A    between atoms: _489  and  _490
REMARK  204  A    between atoms: _490  and  _491
REMARK  205  A    between atoms: _495  and  _497
REMARK  206  A    between atoms: _497  and  _498
REMARK  207  A    between atoms: _497  and  _500
REMARK  208  A    between atoms: _500  and  _501
REMARK  209  A    between atoms: _504  and  _506
REMARK  210  A    between atoms: _506  and  _507
REMARK  211  A    between atoms: _509  and  _511
REMARK  212  A    between atoms: _511  and  _512
REMARK  213  A    between atoms: _511  and  _514
REMARK  214  A    between atoms: _514  and  _515
REMARK  215  A    between atoms: _518  and  _520
REMARK  216  A    between atoms: _520  and  _521
REMARK  217  A    between atoms: _520  and  _523
REMARK  218  A    between atoms: _523  and  _524
REMARK                            x       y       z     vdW  Elec       q    Type
REMARK                         _______ _______ _______ _____ _____    ______ ____
ROOT
ATOM      1  CA  ASN A   2      13.583  17.305  21.135  0.00  0.00    +0.158 C 
ENDROOT
BRANCH   1   4
ATOM      2  C   ARG A   1      12.506  17.664  23.388  0.00  0.00    +0.238 C 
ATOM      3  O   ARG A   1      11.767  18.574  23.020  0.00  0.00    -0.274 OA
ATOM      4  N   ASN A   2      13.374  17.024  22.565  0.00  0.00    -0.297 N 
ATOM      5  H   ASN A   2      13.946  16.263  22.984  0.00  0.00    +0.150 HD
BRANCH   2   6
ATOM      6  CA  ARG A   1      12.479  17.230  24.866  0.00  0.00    +0.145 C 
BRANCH   6   7
ATOM      7  N   ARG A   1      13.076  15.903  25.075  0.00  0.00    -0.238 NA
ATOM      8  H   ARG A   1      13.910  15.839  25.693  0.00  0.00    +0.142 HD
ENDBRANCH   6   7
BRANCH   6   9
ATOM      9  CB  ARG A   1      13.171  18.291  25.753  0.00  0.00    +0.030 C 
BRANCH   9  10
ATOM     10  CG  ARG A   1      14.636  18.537  25.398  0.00  0.00    +0.045 C 
BRANCH  10  11
ATOM     11  CD  ARG A   1      15.288  19.622  26.236  0.00  0.00    +0.174 C 
BRANCH  11  12
ATOM     12  NE  ARG A   1      16.712  19.749  25.911  0.00  0.00    -0.265 N 
ATOM     13  CZ  ARG A   1      17.696  19.121  26.550  0.00  0.00    +0.342 C 
ATOM     14  NH2 ARG A   1      17.427  18.322  27.577  0.00  0.00    -0.292 N 
ATOM     15 HH21 ARG A   1      18.200  17.834  28.073  0.00  0.00    +0.255 HD
ATOM     16 HH22 ARG A   1      16.443  18.185  27.885  0.00  0.00    +0.255 HD
ATOM     17  NH1 ARG A   1      18.955  19.290  26.172  0.00  0.00    -0.292 N 
ATOM     18 HH11 ARG A   1      19.720  18.797  26.675  0.00  0.00    +0.255 HD
ATOM     19 HH12 ARG A   1      19.178  19.916  25.372  0.00  0.00    +0.255 HD
ATOM     20  HE  ARG A   1      16.972  20.376  25.123  0.00  0.00    +0.259 HD
ENDBRANCH  11  12
ENDBRANCH  10  11
ENDBRANCH   9  10
ENDBRANCH   6   9
ENDBRANCH   2   6
ENDBRANCH   1   4
BRANCH   1  21
ATOM     21  C   ASN A   2      12.927  16.295  20.197  0.00  0.00    +0.241 C 
ATOM     22  N   CYS A   3      12.468  15.170  20.742  0.00  0.00    -0.296 N 
ATOM     23  H   CYS A   3      12.633  15.011  21.756  0.00  0.00    +0.150 HD
ATOM     24  O   ASN A   2      12.865  16.528  18.990  0.00  0.00    -0.273 OA
BRANCH  22  25
ATOM     25  CA  CYS A   3      11.749  14.154  19.995  0.00  0.00    +0.160 C 
BRANCH  25  26
ATOM     26  C   CYS A   3      10.275  14.500  20.128  0.00  0.00    +0.242 C 
ATOM     27  O   CYS A   3       9.867  15.063  21.152  0.00  0.00    -0.273 OA
ATOM     28  N   MET A   4       9.482  14.199  19.107  0.00  0.00    -0.297 N 
ATOM     29  H   MET A   4       9.892  13.686  18.301  0.00  0.00    +0.150 HD
BRANCH  28  30
ATOM     30  CA  MET A   4       8.077  14.546  19.055  0.00  0.00    +0.149 C 
BRANCH  30  31
ATOM     31  C   MET A   4       7.148  13.360  18.889  0.00  0.00    +0.241 C 
ATOM     32  N   VAL A   5       5.938  13.487  19.399  0.00  0.00    -0.298 N 
ATOM     33  H   VAL A   5       5.684  14.389  19.850  0.00  0.00    +0.150 HD
ATOM     34  O   MET A   4       7.505  12.402  18.297  0.00  0.00    -0.273 OA
BRANCH  32  35
ATOM     35  CA  VAL A   5       4.935  12.420  19.362  0.00  0.00    +0.137 C 
BRANCH  35  36
ATOM     36  CB  VAL A   5       4.470  12.005  20.790  0.00  0.00    +0.026 C 
ATOM     37  CG2 VAL A   5       5.651  11.879  21.751  0.00  0.00    +0.002 C 
ATOM     38  CG1 VAL A   5       3.659  10.711  20.765  0.00  0.00    +0.002 C 
ENDBRANCH  35  36
BRANCH  35  39
ATOM     39  C   VAL A   5       3.766  12.849  18.465  0.00  0.00    +0.227 C 
ATOM     40  O   VAL A   5       3.158  13.896  18.703  0.00  0.00    -0.286 OA
ENDBRANCH  35  39
ENDBRANCH  32  35
ENDBRANCH  30  31
BRANCH  30  41
ATOM     41  CB  MET A   4       7.801  15.532  17.929  0.00  0.00    +0.041 C 
BRANCH  41  42
ATOM     42  CG  MET A   4       8.583  16.820  17.970  0.00  0.00    +0.060 C 
BRANCH  42  43
ATOM     43  SD  MET A   4       8.393  17.866  19.393  0.00  0.00    -0.139 S 
ATOM     44  CE  MET A   4       6.731  18.384  19.206  0.00  0.00    +0.069 C 
ENDBRANCH  42  43
ENDBRANCH  41  42
ENDBRANCH  30  41
ENDBRANCH  28  30
ENDBRANCH  25  26
BRANCH  25  45
ATOM     45  CB  CYS A   3      12.062  12.759  20.519  0.00  0.00    +0.098 C 
ATOM     46  SG  CYS A   3      13.791  12.270  20.295  0.00  0.00    -0.080 S 
ENDBRANCH  25  45
ENDBRANCH  22  25
ENDBRANCH   1  21
BRANCH   1  47
ATOM     47  CB  ASN A   2      15.085  17.453  20.834  0.00  0.00    +0.114 C 
BRANCH  47  48
ATOM     48  CG  ASN A   2      15.680  18.702  21.431  0.00  0.00    +0.222 C 
ATOM     49  OD1 ASN A   2      16.723  18.668  22.094  0.00  0.00    -0.275 OA
ATOM     50  ND2 ASN A   2      15.002  19.832  21.245  0.00  0.00    -0.329 N 
ATOM     51 HD21 ASN A   2      15.346  20.720  21.663  0.00  0.00    +0.145 HD
ATOM     52 HD22 ASN A   2      14.128  19.827  20.682  0.00  0.00    +0.145 HD
ENDBRANCH  47  48
ENDBRANCH   1  47
TORSDOF 21
REMARK  Name = ../refined-set-2016/5e1s/5e1s_pocket.pdb
REMARK  218 active torsions:
REMARK  status: ('A' for Active; 'I' for Inactive)
REMARK    1  A    between atoms: _1  and  _3
REMARK    2  A    between atoms: _3  and  _4
REMARK    3  A    between atoms: _3  and  _6
REMARK    4  A    between atoms: _6  and  _7
REMARK    5  A    between atoms: _7  and  _8
REMARK    6  A    between atoms: _8  and  _9
REMARK    7  A    between atoms: _18  and  _20
REMARK    8  A    between atoms: _20  and  _21
REMARK    9  A    between atoms: _20  and  _23
REMARK   10  A    between atoms: _24  and  _25
REMARK   11  A    between atoms: _28  and  _30
REMARK   12  A    between atoms: _30  and  _31
REMARK   13  A    between atoms: _30  and  _33
REMARK   14  A    between atoms: _33  and  _34
REMARK   15  A    between atoms: _37  and  _39
REMARK   16  A    between atoms: _39  and  _40
REMARK   17  A    between atoms: _42  and  _44
REMARK   18  A    between atoms: _44  and  _45
REMARK   19  A    between atoms: _44  and  _47
REMARK   20  A    between atoms: _47  and  _48
REMARK   21  A    between atoms: _48  and  _49
REMARK   22  A    between atoms: _54  and  _56
REMARK   23  A    between atoms: _56  and  _57
REMARK   24  A    between atoms: _59  and  _61
REMARK   25  A    between atoms: _61  and  _62
REMARK   26  A    between atoms: _61  and  _64
REMARK   27  A    between atoms: _64  and  _65
REMARK   28  A    between atoms: _67  and  _69
REMARK   29  A    between atoms: _69  and  _70
REMARK   30  A    between atoms: _69  and  _72
REMARK   31  A    between atoms: _72  and  _73
REMARK   32  A    between atoms: _79  and  _81
REMARK   33  A    between atoms: _81  and  _82
REMARK   34  A    between atoms: _84  and  _86
REMARK   35  A    between atoms: _86  and  _87
REMARK   36  A    between atoms: _86  and  _89
REMARK   37  A    between atoms: _89  and  _90
REMARK   38  A    between atoms: _90  and  _91
REMARK   39  A    between atoms: _93  and  _95
REMARK   40  A    between atoms: _95  and  _96
REMARK   41  A    between atoms: _95  and  _98
REMARK   42  A    between atoms: _101  and  _103
REMARK   43  A    between atoms: _103  and  _104
REMARK   44  A    between atoms: _103  and  _106
REMARK   45  A    between atoms: _106  and  _107
REMARK   46  A    between atoms: _112  and  _113
REMARK   47  A    between atoms: _115  and  _117
REMARK   48  A    between atoms: _117  and  _118
REMARK   49  A    between atoms: _117  and  _120
REMARK   50  A    between atoms: _120  and  _121
REMARK   51  A    between atoms: _121  and  _122
REMARK   52  A    between atoms: _125  and  _127
REMARK   53  A    between atoms: _127  and  _128
REMARK   54  A    between atoms: _130  and  _132
REMARK   55  A    between atoms: _132  and  _133
REMARK   56  A    between atoms: _132  and  _135
REMARK   57  A    between atoms: _135  and  _136
REMARK   58  A    between atoms: _136  and  _137
REMARK   59  A    between atoms: _137  and  _138
REMARK   60  A    between atoms: _147  and  _149
REMARK   61  A    between atoms: _149  and  _150
REMARK   62  A    between atoms: _149  and  _152
REMARK   63  A    between atoms: _155  and  _157
REMARK   64  A    between atoms: _157  and  _158
REMARK   65  A    between atoms: _161  and  _163
REMARK   66  A    between atoms: _163  and  _164
REMARK   67  A    between atoms: _163  and  _166
REMARK   68  A    between atoms: _169  and  _171
REMARK   69  A    between atoms: _171  and  _172
REMARK   70  A    between atoms: _171  and  _174
REMARK   71  A    between atoms: _174  and  _175
REMARK   72  A    between atoms: _175  and  _176
REMARK   73  A    between atoms: _176  and  _177
REMARK   74  A    between atoms: _177  and  _178
REMARK   75  A    between atoms: _182  and  _184
REMARK   76  A    between atoms: _184  and  _185
REMARK   77  A    between atoms: _184  and  _187
REMARK   78  A    between atoms: _187  and  _188
REMARK   79  A    between atoms: _191  and  _193
REMARK   80  A    between atoms: _193  and  _194
REMARK   81  A    between atoms: _193  and  _196
REMARK   82  A    between atoms: _199  and  _201
REMARK   83  A    between atoms: _201  and  _202
REMARK   84  A    between atoms: _201  and  _204
REMARK   85  A    between atoms: _207  and  _209
REMARK   86  A    between atoms: _209  and  _210
REMARK   87  A    between atoms: _209  and  _212
REMARK   88  A    between atoms: _212  and  _213
REMARK   89  A    between atoms: _213  and  _214
REMARK   90  A    between atoms: _214  and  _215
REMARK   91  A    between atoms: _224  and  _226
REMARK   92  A    between atoms: _226  and  _227
REMARK   93  A    between atoms: _226  and  _229
REMARK   94  A    between atoms: _232  and  _234
REMARK   95  A    between atoms: _234  and  _235
REMARK   96  A    between atoms: _234  and  _237
REMARK   97  A    between atoms: _240  and  _242
REMARK   98  A    between atoms: _242  and  _243
REMARK   99  A    between atoms: _242  and  _245
REMARK  100  A    between atoms: _245  and  _246
REMARK  101  A    between atoms: _246  and  _247
REMARK  102  A    between atoms: _249  and  _251
REMARK  103  A    between atoms: _251  and  _252
REMARK  104  A    between atoms: _251  and  _254
REMARK  105  A    between atoms: _255  and  _256
REMARK  106  A    between atoms: _259  and  _261
REMARK  107  A    between atoms: _261  and  _262
REMARK  108  A    between atoms: _261  and  _264
REMARK  109  A    between atoms: _264  and  _265
REMARK  110  A    between atoms: _268  and  _270
REMARK  111  A    between atoms: _270  and  _271
REMARK  112  A    between atoms: _270  and  _273
REMARK  113  A    between atoms: _273  and  _274
REMARK  114  A    between atoms: _274  and  _275
REMARK  115  A    between atoms: _277  and  _279
REMARK  116  A    between atoms: _279  and  _280
REMARK  117  A    between atoms: _283  and  _285
REMARK  118  A    between atoms: _285  and  _286
REMARK  119  A    between atoms: _285  and  _288
REMARK  120  A    between atoms: _288  and  _289
REMARK  121  A    between atoms: _294  and  _296
REMARK  122  A    between atoms: _296  and  _297
REMARK  123  A    between atoms: _299  and  _301
REMARK  124  A    between atoms: _301  and  _302
REMARK  125  A    between atoms: _301  and  _304
REMARK  126  A    between atoms: _304  and  _305
REMARK  127  A    between atoms: _308  and  _310
REMARK  128  A    between atoms: _310  and  _311
REMARK  129  A    between atoms: _310  and  _313
REMARK  130  A    between atoms: _313  and  _314
REMARK  131  A    between atoms: _317  and  _319
REMARK  132  A    between atoms: _319  and  _320
REMARK  133  A    between atoms: _319  and  _322
REMARK  134  A    between atoms: _322  and  _323
REMARK  135  A    between atoms: _323  and  _324
REMARK  136  A    between atoms: _324  and  _325
REMARK  137  A    between atoms: _325  and  _326
REMARK  138  A    between atoms: _330  and  _332
REMARK  139  A    between atoms: _332  and  _333
REMARK  140  A    between atoms: _332  and  _335
REMARK  141  A    between atoms: _335  and  _336
REMARK  142  A    between atoms: _338  and  _340
REMARK  143  A    between atoms: _340  and  _341
REMARK  144  A    between atoms: _340  and  _343
REMARK  145  A    between atoms: _343  and  _344
REMARK  146  A    between atoms: _349  and  _350
REMARK  147  A    between atoms: _352  and  _354
REMARK  148  A    between atoms: _354  and  _355
REMARK  149  A    between atoms: _354  and  _357
REMARK  150  A    between atoms: _357  and  _358
REMARK  151  A    between atoms: _360  and  _362
REMARK  152  A    between atoms: _362  and  _363
REMARK  153  A    between atoms: _362  and  _365
REMARK  154  A    between atoms: _365  and  _366
REMARK  155  A    between atoms: _369  and  _371
REMARK  156  A    between atoms: _371  and  _372
REMARK  157  A    between atoms: _371  and  _374
REMARK  158  A    between atoms: _374  and  _375
REMARK  159  A    between atoms: _375  and  _376
REMARK  160  A    between atoms: _379  and  _381
REMARK  161  A    between atoms: _381  and  _382
REMARK  162  A    between atoms: _381  and  _384
REMARK  163  A    between atoms: _384  and  _385
REMARK  164  A    between atoms: _390  and  _392
REMARK  165  A    between atoms: _392  and  _393
REMARK  166  A    between atoms: _392  and  _395
REMARK  167  A    between atoms: _395  and  _396
REMARK  168  A    between atoms: _402  and  _403
REMARK  169  A    between atoms: _408  and  _410
REMARK  170  A    between atoms: _410  and  _411
REMARK  171  A    between atoms: _413  and  _415
REMARK  172  A    between atoms: _415  and  _416
REMARK  173  A    between atoms: _415  and  _418
REMARK  174  A    between atoms: _418  and  _419
REMARK  175  A    between atoms: _419  and  _420
REMARK  176  A    between atoms: _420  and  _421
REMARK  177  A    between atoms: _430  and  _432
REMARK  178  A    between atoms: _432  and  _433
REMARK  179  A    between atoms: _432  and  _435
REMARK  180  A    between atoms: _435  and  _436
REMARK  181  A    between atoms: _436  and  _437
REMARK  182  A    between atoms: _437  and  _438
REMARK  183  A    between atoms: _447  and  _449
REMARK  184  A    between atoms: _449  and  _450
REMARK  185  A    between atoms: _449  and  _452
REMARK  186  A    between atoms: _452  and  _453
REMARK  187  A    between atoms: _458  and  _460
REMARK  188  A    between atoms: _460  and  _461
REMARK  189  A    between atoms: _460  and  _463
REMARK  190  A    between atoms: _465  and  _467
REMARK  191  A    between atoms: _467  and  _468
REMARK  192  A    between atoms: _467  and  _470
REMARK  193  A    between atoms: _470  and  _471
REMARK  194  A    between atoms: _471  and  _472
REMARK  195  A    between atoms: _474  and  _476
REMARK  196  A    between atoms: _476  and  _477
REMARK  197  A    between atoms: _476  and  _479
REMARK  198  A    between atoms: _482  and  _484
REMARK  199  A    between atoms: _484  and  _485
REMARK  200  A    between atoms: _484  and  _487
REMARK  201  A    between atoms: _487  and  _488
REMARK  202  A    between atoms: _488  and  _489
REMARK  203  A    between atoms: _489  and  _490
REMARK  204  A    between atoms: _490  and  _491
REMARK  205  A    between atoms: _495  and  _497
REMARK  206  A    between atoms: _497  and  _498
REMARK  207  A    between atoms: _497  and  _500
REMARK  208  A    between atoms: _500  and  _501
REMARK  209  A    between atoms: _504  and  _506
REMARK  210  A    between atoms: _506  and  _507
REMARK  211  A    between atoms: _509  and  _511
REMARK  212  A    between atoms: _511  and  _512
REMARK  213  A    between atoms: _511  and  _514
REMARK  214  A    between atoms: _514  and  _515
REMARK  215  A    between atoms: _518  and  _520
REMARK  216  A    between atoms: _520  and  _521
REMARK  217  A    between atoms: _520  and  _523
REMARK  218  A    between atoms: _523  and  _524
REMARK                            x       y       z     vdW  Elec       q    Type
REMARK                         _______ _______ _______ _____ _____    ______ ____
ROOT
ATOM      1  C   ILE A   2      12.531  15.198  14.997  0.00  0.00    +0.241 C 
ATOM      2  N   GLY A   3      12.573  16.095  15.986  0.00  0.00    -0.295 N 
ATOM      3  H   GLY A   3      12.967  15.795  16.901  0.00  0.00    +0.150 HD
ATOM      4  O   ILE A   2      12.023  15.411  13.891  0.00  0.00    -0.273 OA
ENDROOT
BRANCH   2   5
ATOM      5  CA  GLY A   3      12.100  17.470  15.861  0.00  0.00    +0.176 C 
BRANCH   5   6
ATOM      6  C   GLY A   3      13.156  18.352  15.221  0.00  0.00    +0.243 C 
ATOM      7  N   ASP A   4      13.504  19.472  15.883  0.00  0.00    -0.296 N 
ATOM      8  H   ASP A   4      13.026  19.680  16.783  0.00  0.00    +0.150 HD
ATOM      9  O   GLY A   3      13.665  18.026  14.146  0.00  0.00    -0.273 OA
BRANCH   7  10
ATOM     10  CA  ASP A   4      14.523  20.417  15.403  0.00  0.00    +0.160 C 
BRANCH  10  11
ATOM     11  C   ASP A   4      15.912  19.927  15.785  0.00  0.00    +0.241 C 
ATOM     12  O   ASP A   4      16.066  19.286  16.829  0.00  0.00    -0.273 OA
ATOM     13  N   PHE A   5      16.916  20.203  14.932  0.00  0.00    -0.298 N 
ATOM     14  H   PHE A   5      16.698  20.768  14.086  0.00  0.00    +0.150 HD
BRANCH  13  15
ATOM     15  CA  PHE A   5      18.303  19.754  15.124  0.00  0.00    +0.141 C 
BRANCH  15  16
ATOM     16  C   PHE A   5      19.357  20.742  14.602  0.00  0.00    +0.227 C 
ATOM     17  O   PHE A   5      19.016  21.734  13.953  0.00  0.00    -0.286 OA
ENDBRANCH  15  16
BRANCH  15  18
ATOM     18  CB  PHE A   5      18.507  18.361  14.493  0.00  0.00    +0.054 C 
BRANCH  18  19
ATOM     19  CG  PHE A   5      18.290  18.286  13.001  0.00  0.00    -0.020 A 
ATOM     20  CD2 PHE A   5      17.017  18.095  12.475  0.00  0.00    -0.004 A 
ATOM     21  CE2 PHE A   5      16.818  18.034  11.095  0.00  0.00    -0.000 A 
ATOM     22  CZ  PHE A   5      17.895  18.142  10.240  0.00  0.00    -0.000 A 
ATOM     23  CE1 PHE A   5      19.163  18.319  10.743  0.00  0.00    -0.000 A 
ATOM     24  CD1 PHE A   5      19.362  18.378  12.122  0.00  0.00    -0.004 A 
ENDBRANCH  18  19
ENDBRANCH  15  18
ENDBRANCH  13  15
ENDBRANCH  10  11
BRANCH  10  25
ATOM     25  CB  ASP A   4      14.261  21.836  15.946  0.00  0.00    +0.143 C 
BRANCH  25  26
ATOM     26  CG  ASP A   4      12.972  22.489  15.456  0.00  0.00    +0.367 C 
ATOM     27  OD2 ASP A   4      12.428  23.346  16.186  0.00  0.00    -0.246 OA
ATOM     28  OD1 ASP A   4      12.535  22.179  14.320  0.00  0.00    -0.246 OA
ENDBRANCH  25  26
ENDBRANCH  10  25
ENDBRANCH   7  10
ENDBRANCH   5   6
ENDBRANCH   2   5
BRANCH   1  29
ATOM     29  CA  ILE A   2      13.121  13.816  15.306  0.00  0.00    +0.148 C 
BRANCH  29  32
ATOM     30  C   LYS A   1      11.011  12.633  15.718  0.00  0.00    +0.238 C 
ATOM     31  O   LYS A   1      10.816  13.197  16.790  0.00  0.00    -0.274 OA
ATOM     32  N   ILE A   2      12.095  12.840  14.967  0.00  0.00    -0.297 N 
ATOM     33  H   ILE A   2      12.212  12.278  14.100  0.00  0.00    +0.150 HD
BRANCH  30  34
ATOM     34  CA  LYS A   1      10.001  11.671  15.169  0.00  0.00    +0.145 C 
BRANCH  34  35
ATOM     35  N   LYS A   1       9.173  11.093  16.226  0.00  0.00    -0.238 NA
ATOM     36  H   LYS A   1       8.785  11.722  16.958  0.00  0.00    +0.142 HD
ENDBRANCH  34  35
BRANCH  34  37
ATOM     37  CB  LYS A   1       9.132  12.385  14.115  0.00  0.00    +0.026 C 
BRANCH  37  38
ATOM     38  CG  LYS A   1       8.131  11.483  13.394  0.00  0.00    -0.000 C 
BRANCH  38  39
ATOM     39  CD  LYS A   1       7.274  12.254  12.399  0.00  0.00    -0.024 C 
BRANCH  39  40
ATOM     40  CE  LYS A   1       5.992  11.509  12.084  0.00  0.00    -0.086 C 
BRANCH  40  41
ATOM     41  NZ  LYS A   1       5.495  11.834  10.717  0.00  0.00    +0.380 N 
ATOM     42  HZ1 LYS A   1       5.308  12.855  10.651  0.00  0.00    -0.089 HD
ATOM     43  HZ2 LYS A   1       4.617  11.307  10.534  0.00  0.00    -0.089 HD
ATOM     44  HZ3 LYS A   1       6.214  11.566  10.015  0.00  0.00    -0.089 HD
ENDBRANCH  40  41
ENDBRANCH  39  40
ENDBRANCH  38  39
ENDBRANCH  37  38
ENDBRANCH  34  37
ENDBRANCH  30  34
ENDBRANCH  29  32
BRANCH  29  45
ATOM     45  CB  ILE A   2      14.440  13.550  14.513  0.00  0.00    +0.027 C 
ATOM     46  CG2 ILE A   2      15.523  14.587  14.847  0.00  0.00    +0.002 C 
BRANCH  45  47
ATOM     47  CG1 ILE A   2      14.956  12.085  14.658  0.00  0.00    +0.002 C 
ATOM     48  CD1 ILE A   2      15.233  11.575  16.113  0.00  0.00    +0.000 C 
ENDBRANCH  45  47
ENDBRANCH  29  45
ENDBRANCH   1  29
TORSDOF 21
REMARK  Name = ../refined-set-2016/5e1s/5e1s_pocket.pdb
REMARK  218 active torsions:
REMARK  status: ('A' for Active; 'I' for Inactive)
REMARK    1  A    between atoms: _1  and  _3
REMARK    2  A    between atoms: _3  and  _4
REMARK    3  A    between atoms: _3  and  _6
REMARK    4  A    between atoms: _6  and  _7
REMARK    5  A    between atoms: _7  and  _8
REMARK    6  A    between atoms: _8  and  _9
REMARK    7  A    between atoms: _18  and  _20
REMARK    8  A    between atoms: _20  and  _21
REMARK    9  A    between atoms: _20  and  _23
REMARK   10  A    between atoms: _24  and  _25
REMARK   11  A    between atoms: _28  and  _30
REMARK   12  A    between atoms: _30  and  _31
REMARK   13  A    between atoms: _30  and  _33
REMARK   14  A    between atoms: _33  and  _34
REMARK   15  A    between atoms: _37  and  _39
REMARK   16  A    between atoms: _39  and  _40
REMARK   17  A    between atoms: _42  and  _44
REMARK   18  A    between atoms: _44  and  _45
REMARK   19  A    between atoms: _44  and  _47
REMARK   20  A    between atoms: _47  and  _48
REMARK   21  A    between atoms: _48  and  _49
REMARK   22  A    between atoms: _54  and  _56
REMARK   23  A    between atoms: _56  and  _57
REMARK   24  A    between atoms: _59  and  _61
REMARK   25  A    between atoms: _61  and  _62
REMARK   26  A    between atoms: _61  and  _64
REMARK   27  A    between atoms: _64  and  _65
REMARK   28  A    between atoms: _67  and  _69
REMARK   29  A    between atoms: _69  and  _70
REMARK   30  A    between atoms: _69  and  _72
REMARK   31  A    between atoms: _72  and  _73
REMARK   32  A    between atoms: _79  and  _81
REMARK   33  A    between atoms: _81  and  _82
REMARK   34  A    between atoms: _84  and  _86
REMARK   35  A    between atoms: _86  and  _87
REMARK   36  A    between atoms: _86  and  _89
REMARK   37  A    between atoms: _89  and  _90
REMARK   38  A    between atoms: _90  and  _91
REMARK   39  A    between atoms: _93  and  _95
REMARK   40  A    between atoms: _95  and  _96
REMARK   41  A    between atoms: _95  and  _98
REMARK   42  A    between atoms: _101  and  _103
REMARK   43  A    between atoms: _103  and  _104
REMARK   44  A    between atoms: _103  and  _106
REMARK   45  A    between atoms: _106  and  _107
REMARK   46  A    between atoms: _112  and  _113
REMARK   47  A    between atoms: _115  and  _117
REMARK   48  A    between atoms: _117  and  _118
REMARK   49  A    between atoms: _117  and  _120
REMARK   50  A    between atoms: _120  and  _121
REMARK   51  A    between atoms: _121  and  _122
REMARK   52  A    between atoms: _125  and  _127
REMARK   53  A    between atoms: _127  and  _128
REMARK   54  A    between atoms: _130  and  _132
REMARK   55  A    between atoms: _132  and  _133
REMARK   56  A    between atoms: _132  and  _135
REMARK   57  A    between atoms: _135  and  _136
REMARK   58  A    between atoms: _136  and  _137
REMARK   59  A    between atoms: _137  and  _138
REMARK   60  A    between atoms: _147  and  _149
REMARK   61  A    between atoms: _149  and  _150
REMARK   62  A    between atoms: _149  and  _152
REMARK   63  A    between atoms: _155  and  _157
REMARK   64  A    between atoms: _157  and  _158
REMARK   65  A    between atoms: _161  and  _163
REMARK   66  A    between atoms: _163  and  _164
REMARK   67  A    between atoms: _163  and  _166
REMARK   68  A    between atoms: _169  and  _171
REMARK   69  A    between atoms: _171  and  _172
REMARK   70  A    between atoms: _171  and  _174
REMARK   71  A    between atoms: _174  and  _175
REMARK   72  A    between atoms: _175  and  _176
REMARK   73  A    between atoms: _176  and  _177
REMARK   74  A    between atoms: _177  and  _178
REMARK   75  A    between atoms: _182  and  _184
REMARK   76  A    between atoms: _184  and  _185
REMARK   77  A    between atoms: _184  and  _187
REMARK   78  A    between atoms: _187  and  _188
REMARK   79  A    between atoms: _191  and  _193
REMARK   80  A    between atoms: _193  and  _194
REMARK   81  A    between atoms: _193  and  _196
REMARK   82  A    between atoms: _199  and  _201
REMARK   83  A    between atoms: _201  and  _202
REMARK   84  A    between atoms: _201  and  _204
REMARK   85  A    between atoms: _207  and  _209
REMARK   86  A    between atoms: _209  and  _210
REMARK   87  A    between atoms: _209  and  _212
REMARK   88  A    between atoms: _212  and  _213
REMARK   89  A    between atoms: _213  and  _214
REMARK   90  A    between atoms: _214  and  _215
REMARK   91  A    between atoms: _224  and  _226
REMARK   92  A    between atoms: _226  and  _227
REMARK   93  A    between atoms: _226  and  _229
REMARK   94  A    between atoms: _232  and  _234
REMARK   95  A    between atoms: _234  and  _235
REMARK   96  A    between atoms: _234  and  _237
REMARK   97  A    between atoms: _240  and  _242
REMARK   98  A    between atoms: _242  and  _243
REMARK   99  A    between atoms: _242  and  _245
REMARK  100  A    between atoms: _245  and  _246
REMARK  101  A    between atoms: _246  and  _247
REMARK  102  A    between atoms: _249  and  _251
REMARK  103  A    between atoms: _251  and  _252
REMARK  104  A    between atoms: _251  and  _254
REMARK  105  A    between atoms: _255  and  _256
REMARK  106  A    between atoms: _259  and  _261
REMARK  107  A    between atoms: _261  and  _262
REMARK  108  A    between atoms: _261  and  _264
REMARK  109  A    between atoms: _264  and  _265
REMARK  110  A    between atoms: _268  and  _270
REMARK  111  A    between atoms: _270  and  _271
REMARK  112  A    between atoms: _270  and  _273
REMARK  113  A    between atoms: _273  and  _274
REMARK  114  A    between atoms: _274  and  _275
REMARK  115  A    between atoms: _277  and  _279
REMARK  116  A    between atoms: _279  and  _280
REMARK  117  A    between atoms: _283  and  _285
REMARK  118  A    between atoms: _285  and  _286
REMARK  119  A    between atoms: _285  and  _288
REMARK  120  A    between atoms: _288  and  _289
REMARK  121  A    between atoms: _294  and  _296
REMARK  122  A    between atoms: _296  and  _297
REMARK  123  A    between atoms: _299  and  _301
REMARK  124  A    between atoms: _301  and  _302
REMARK  125  A    between atoms: _301  and  _304
REMARK  126  A    between atoms: _304  and  _305
REMARK  127  A    between atoms: _308  and  _310
REMARK  128  A    between atoms: _310  and  _311
REMARK  129  A    between atoms: _310  and  _313
REMARK  130  A    between atoms: _313  and  _314
REMARK  131  A    between atoms: _317  and  _319
REMARK  132  A    between atoms: _319  and  _320
REMARK  133  A    between atoms: _319  and  _322
REMARK  134  A    between atoms: _322  and  _323
REMARK  135  A    between atoms: _323  and  _324
REMARK  136  A    between atoms: _324  and  _325
REMARK  137  A    between atoms: _325  and  _326
REMARK  138  A    between atoms: _330  and  _332
REMARK  139  A    between atoms: _332  and  _333
REMARK  140  A    between atoms: _332  and  _335
REMARK  141  A    between atoms: _335  and  _336
REMARK  142  A    between atoms: _338  and  _340
REMARK  143  A    between atoms: _340  and  _341
REMARK  144  A    between atoms: _340  and  _343
REMARK  145  A    between atoms: _343  and  _344
REMARK  146  A    between atoms: _349  and  _350
REMARK  147  A    between atoms: _352  and  _354
REMARK  148  A    between atoms: _354  and  _355
REMARK  149  A    between atoms: _354  and  _357
REMARK  150  A    between atoms: _357  and  _358
REMARK  151  A    between atoms: _360  and  _362
REMARK  152  A    between atoms: _362  and  _363
REMARK  153  A    between atoms: _362  and  _365
REMARK  154  A    between atoms: _365  and  _366
REMARK  155  A    between atoms: _369  and  _371
REMARK  156  A    between atoms: _371  and  _372
REMARK  157  A    between atoms: _371  and  _374
REMARK  158  A    between atoms: _374  and  _375
REMARK  159  A    between atoms: _375  and  _376
REMARK  160  A    between atoms: _379  and  _381
REMARK  161  A    between atoms: _381  and  _382
REMARK  162  A    between atoms: _381  and  _384
REMARK  163  A    between atoms: _384  and  _385
REMARK  164  A    between atoms: _390  and  _392
REMARK  165  A    between atoms: _392  and  _393
REMARK  166  A    between atoms: _392  and  _395
REMARK  167  A    between atoms: _395  and  _396
REMARK  168  A    between atoms: _402  and  _403
REMARK  169  A    between atoms: _408  and  _410
REMARK  170  A    between atoms: _410  and  _411
REMARK  171  A    between atoms: _413  and  _415
REMARK  172  A    between atoms: _415  and  _416
REMARK  173  A    between atoms: _415  and  _418
REMARK  174  A    between atoms: _418  and  _419
REMARK  175  A    between atoms: _419  and  _420
REMARK  176  A    between atoms: _420  and  _421
REMARK  177  A    between atoms: _430  and  _432
REMARK  178  A    between atoms: _432  and  _433
REMARK  179  A    between atoms: _432  and  _435
REMARK  180  A    between atoms: _435  and  _436
REMARK  181  A    between atoms: _436  and  _437
REMARK  182  A    between atoms: _437  and  _438
REMARK  183  A    between atoms: _447  and  _449
REMARK  184  A    between atoms: _449  and  _450
REMARK  185  A    between atoms: _449  and  _452
REMARK  186  A    between atoms: _452  and  _453
REMARK  187  A    between atoms: _458  and  _460
REMARK  188  A    between atoms: _460  and  _461
REMARK  189  A    between atoms: _460  and  _463
REMARK  190  A    between atoms: _465  and  _467
REMARK  191  A    between atoms: _467  and  _468
REMARK  192  A    between atoms: _467  and  _470
REMARK  193  A    between atoms: _470  and  _471
REMARK  194  A    between atoms: _471  and  _472
REMARK  195  A    between atoms: _474  and  _476
REMARK  196  A    between atoms: _476  and  _477
REMARK  197  A    between atoms: _476  and  _479
REMARK  198  A    between atoms: _482  and  _484
REMARK  199  A    between atoms: _484  and  _485
REMARK  200  A    between atoms: _484  and  _487
REMARK  201  A    between atoms: _487  and  _488
REMARK  202  A    between atoms: _488  and  _489
REMARK  203  A    between atoms: _489  and  _490
REMARK  204  A    between atoms: _490  and  _491
REMARK  205  A    between atoms: _495  and  _497
REMARK  206  A    between atoms: _497  and  _498
REMARK  207  A    between atoms: _497  and  _500
REMARK  208  A    between atoms: _500  and  _501
REMARK  209  A    between atoms: _504  and  _506
REMARK  210  A    between atoms: _506  and  _507
REMARK  211  A    between atoms: _509  and  _511
REMARK  212  A    between atoms: _511  and  _512
REMARK  213  A    between atoms: _511  and  _514
REMARK  214  A    between atoms: _514  and  _515
REMARK  215  A    between atoms: _518  and  _520
REMARK  216  A    between atoms: _520  and  _521
REMARK  217  A    between atoms: _520  and  _523
REMARK  218  A    between atoms: _523  and  _524
REMARK                            x       y       z     vdW  Elec       q    Type
REMARK                         _______ _______ _______ _____ _____    ______ ____
ROOT
ATOM      1  O   HOH     1       3.340  16.574  25.427  0.00  0.00    +0.000 OA
ENDROOT
TORSDOF 0
REMARK  Name = ../refined-set-2016/5e1s/5e1s_pocket.pdb
REMARK  218 active torsions:
REMARK  status: ('A' for Active; 'I' for Inactive)
REMARK    1  A    between atoms: _1  and  _3
REMARK    2  A    between atoms: _3  and  _4
REMARK    3  A    between atoms: _3  and  _6
REMARK    4  A    between atoms: _6  and  _7
REMARK    5  A    between atoms: _7  and  _8
REMARK    6  A    between atoms: _8  and  _9
REMARK    7  A    between atoms: _18  and  _20
REMARK    8  A    between atoms: _20  and  _21
REMARK    9  A    between atoms: _20  and  _23
REMARK   10  A    between atoms: _24  and  _25
REMARK   11  A    between atoms: _28  and  _30
REMARK   12  A    between atoms: _30  and  _31
REMARK   13  A    between atoms: _30  and  _33
REMARK   14  A    between atoms: _33  and  _34
REMARK   15  A    between atoms: _37  and  _39
REMARK   16  A    between atoms: _39  and  _40
REMARK   17  A    between atoms: _42  and  _44
REMARK   18  A    between atoms: _44  and  _45
REMARK   19  A    between atoms: _44  and  _47
REMARK   20  A    between atoms: _47  and  _48
REMARK   21  A    between atoms: _48  and  _49
REMARK   22  A    between atoms: _54  and  _56
REMARK   23  A    between atoms: _56  and  _57
REMARK   24  A    between atoms: _59  and  _61
REMARK   25  A    between atoms: _61  and  _62
REMARK   26  A    between atoms: _61  and  _64
REMARK   27  A    between atoms: _64  and  _65
REMARK   28  A    between atoms: _67  and  _69
REMARK   29  A    between atoms: _69  and  _70
REMARK   30  A    between atoms: _69  and  _72
REMARK   31  A    between atoms: _72  and  _73
REMARK   32  A    between atoms: _79  and  _81
REMARK   33  A    between atoms: _81  and  _82
REMARK   34  A    between atoms: _84  and  _86
REMARK   35  A    between atoms: _86  and  _87
REMARK   36  A    between atoms: _86  and  _89
REMARK   37  A    between atoms: _89  and  _90
REMARK   38  A    between atoms: _90  and  _91
REMARK   39  A    between atoms: _93  and  _95
REMARK   40  A    between atoms: _95  and  _96
REMARK   41  A    between atoms: _95  and  _98
REMARK   42  A    between atoms: _101  and  _103
REMARK   43  A    between atoms: _103  and  _104
REMARK   44  A    between atoms: _103  and  _106
REMARK   45  A    between atoms: _106  and  _107
REMARK   46  A    between atoms: _112  and  _113
REMARK   47  A    between atoms: _115  and  _117
REMARK   48  A    between atoms: _117  and  _118
REMARK   49  A    between atoms: _117  and  _120
REMARK   50  A    between atoms: _120  and  _121
REMARK   51  A    between atoms: _121  and  _122
REMARK   52  A    between atoms: _125  and  _127
REMARK   53  A    between atoms: _127  and  _128
REMARK   54  A    between atoms: _130  and  _132
REMARK   55  A    between atoms: _132  and  _133
REMARK   56  A    between atoms: _132  and  _135
REMARK   57  A    between atoms: _135  and  _136
REMARK   58  A    between atoms: _136  and  _137
REMARK   59  A    between atoms: _137  and  _138
REMARK   60  A    between atoms: _147  and  _149
REMARK   61  A    between atoms: _149  and  _150
REMARK   62  A    between atoms: _149  and  _152
REMARK   63  A    between atoms: _155  and  _157
REMARK   64  A    between atoms: _157  and  _158
REMARK   65  A    between atoms: _161  and  _163
REMARK   66  A    between atoms: _163  and  _164
REMARK   67  A    between atoms: _163  and  _166
REMARK   68  A    between atoms: _169  and  _171
REMARK   69  A    between atoms: _171  and  _172
REMARK   70  A    between atoms: _171  and  _174
REMARK   71  A    between atoms: _174  and  _175
REMARK   72  A    between atoms: _175  and  _176
REMARK   73  A    between atoms: _176  and  _177
REMARK   74  A    between atoms: _177  and  _178
REMARK   75  A    between atoms: _182  and  _184
REMARK   76  A    between atoms: _184  and  _185
REMARK   77  A    between atoms: _184  and  _187
REMARK   78  A    between atoms: _187  and  _188
REMARK   79  A    between atoms: _191  and  _193
REMARK   80  A    between atoms: _193  and  _194
REMARK   81  A    between atoms: _193  and  _196
REMARK   82  A    between atoms: _199  and  _201
REMARK   83  A    between atoms: _201  and  _202
REMARK   84  A    between atoms: _201  and  _204
REMARK   85  A    between atoms: _207  and  _209
REMARK   86  A    between atoms: _209  and  _210
REMARK   87  A    between atoms: _209  and  _212
REMARK   88  A    between atoms: _212  and  _213
REMARK   89  A    between atoms: _213  and  _214
REMARK   90  A    between atoms: _214  and  _215
REMARK   91  A    between atoms: _224  and  _226
REMARK   92  A    between atoms: _226  and  _227
REMARK   93  A    between atoms: _226  and  _229
REMARK   94  A    between atoms: _232  and  _234
REMARK   95  A    between atoms: _234  and  _235
REMARK   96  A    between atoms: _234  and  _237
REMARK   97  A    between atoms: _240  and  _242
REMARK   98  A    between atoms: _242  and  _243
REMARK   99  A    between atoms: _242  and  _245
REMARK  100  A    between atoms: _245  and  _246
REMARK  101  A    between atoms: _246  and  _247
REMARK  102  A    between atoms: _249  and  _251
REMARK  103  A    between atoms: _251  and  _252
REMARK  104  A    between atoms: _251  and  _254
REMARK  105  A    between atoms: _255  and  _256
REMARK  106  A    between atoms: _259  and  _261
REMARK  107  A    between atoms: _261  and  _262
REMARK  108  A    between atoms: _261  and  _264
REMARK  109  A    between atoms: _264  and  _265
REMARK  110  A    between atoms: _268  and  _270
REMARK  111  A    between atoms: _270  and  _271
REMARK  112  A    between atoms: _270  and  _273
REMARK  113  A    between atoms: _273  and  _274
REMARK  114  A    between atoms: _274  and  _275
REMARK  115  A    between atoms: _277  and  _279
REMARK  116  A    between atoms: _279  and  _280
REMARK  117  A    between atoms: _283  and  _285
REMARK  118  A    between atoms: _285  and  _286
REMARK  119  A    between atoms: _285  and  _288
REMARK  120  A    between atoms: _288  and  _289
REMARK  121  A    between atoms: _294  and  _296
REMARK  122  A    between atoms: _296  and  _297
REMARK  123  A    between atoms: _299  and  _301
REMARK  124  A    between atoms: _301  and  _302
REMARK  125  A    between atoms: _301  and  _304
REMARK  126  A    between atoms: _304  and  _305
REMARK  127  A    between atoms: _308  and  _310
REMARK  128  A    between atoms: _310  and  _311
REMARK  129  A    between atoms: _310  and  _313
REMARK  130  A    between atoms: _313  and  _314
REMARK  131  A    between atoms: _317  and  _319
REMARK  132  A    between atoms: _319  and  _320
REMARK  133  A    between atoms: _319  and  _322
REMARK  134  A    between atoms: _322  and  _323
REMARK  135  A    between atoms: _323  and  _324
REMARK  136  A    between atoms: _324  and  _325
REMARK  137  A    between atoms: _325  and  _326
REMARK  138  A    between atoms: _330  and  _332
REMARK  139  A    between atoms: _332  and  _333
REMARK  140  A    between atoms: _332  and  _335
REMARK  141  A    between atoms: _335  and  _336
REMARK  142  A    between atoms: _338  and  _340
REMARK  143  A    between atoms: _340  and  _341
REMARK  144  A    between atoms: _340  and  _343
REMARK  145  A    between atoms: _343  and  _344
REMARK  146  A    between atoms: _349  and  _350
REMARK  147  A    between atoms: _352  and  _354
REMARK  148  A    between atoms: _354  and  _355
REMARK  149  A    between atoms: _354  and  _357
REMARK  150  A    between atoms: _357  and  _358
REMARK  151  A    between atoms: _360  and  _362
REMARK  152  A    between atoms: _362  and  _363
REMARK  153  A    between atoms: _362  and  _365
REMARK  154  A    between atoms: _365  and  _366
REMARK  155  A    between atoms: _369  and  _371
REMARK  156  A    between atoms: _371  and  _372
REMARK  157  A    between atoms: _371  and  _374
REMARK  158  A    between atoms: _374  and  _375
REMARK  159  A    between atoms: _375  and  _376
REMARK  160  A    between atoms: _379  and  _381
REMARK  161  A    between atoms: _381  and  _382
REMARK  162  A    between atoms: _381  and  _384
REMARK  163  A    between atoms: _384  and  _385
REMARK  164  A    between atoms: _390  and  _392
REMARK  165  A    between atoms: _392  and  _393
REMARK  166  A    between atoms: _392  and  _395
REMARK  167  A    between atoms: _395  and  _396
REMARK  168  A    between atoms: _402  and  _403
REMARK  169  A    between atoms: _408  and  _410
REMARK  170  A    between atoms: _410  and  _411
REMARK  171  A    between atoms: _413  and  _415
REMARK  172  A    between atoms: _415  and  _416
REMARK  173  A    between atoms: _415  and  _418
REMARK  174  A    between atoms: _418  and  _419
REMARK  175  A    between atoms: _419  and  _420
REMARK  176  A    between atoms: _420  and  _421
REMARK  177  A    between atoms: _430  and  _432
REMARK  178  A    between atoms: _432  and  _433
REMARK  179  A    between atoms: _432  and  _435
REMARK  180  A    between atoms: _435  and  _436
REMARK  181  A    between atoms: _436  and  _437
REMARK  182  A    between atoms: _437  and  _438
REMARK  183  A    between atoms: _447  and  _449
REMARK  184  A    between atoms: _449  and  _450
REMARK  185  A    between atoms: _449  and  _452
REMARK  186  A    between atoms: _452  and  _453
REMARK  187  A    between atoms: _458  and  _460
REMARK  188  A    between atoms: _460  and  _461
REMARK  189  A    between atoms: _460  and  _463
REMARK  190  A    between atoms: _465  and  _467
REMARK  191  A    between atoms: _467  and  _468
REMARK  192  A    between atoms: _467  and  _470
REMARK  193  A    between atoms: _470  and  _471
REMARK  194  A    between atoms: _471  and  _472
REMARK  195  A    between atoms: _474  and  _476
REMARK  196  A    between atoms: _476  and  _477
REMARK  197  A    between atoms: _476  and  _479
REMARK  198  A    between atoms: _482  and  _484
REMARK  199  A    between atoms: _484  and  _485
REMARK  200  A    between atoms: _484  and  _487
REMARK  201  A    between atoms: _487  and  _488
REMARK  202  A    between atoms: _488  and  _489
REMARK  203  A    between atoms: _489  and  _490
REMARK  204  A    between atoms: _490  and  _491
REMARK  205  A    between atoms: _495  and  _497
REMARK  206  A    between atoms: _497  and  _498
REMARK  207  A    between atoms: _497  and  _500
REMARK  208  A    between atoms: _500  and  _501
REMARK  209  A    between atoms: _504  and  _506
REMARK  210  A    between atoms: _506  and  _507
REMARK  211  A    between atoms: _509  and  _511
REMARK  212  A    between atoms: _511  and  _512
REMARK  213  A    between atoms: _511  and  _514
REMARK  214  A    between atoms: _514  and  _515
REMARK  215  A    between atoms: _518  and  _520
REMARK  216  A    between atoms: _520  and  _521
REMARK  217  A    between atoms: _520  and  _523
REMARK  218  A    between atoms: _523  and  _524
REMARK                            x       y       z     vdW  Elec       q    Type
REMARK                         _______ _______ _______ _____ _____    ______ ____
ROOT
ATOM      1  O   HOH     1      12.324  18.288  11.832  0.00  0.00    +0.000 OA
ENDROOT
TORSDOF 0
REMARK  Name = ../refined-set-2016/5e1s/5e1s_pocket.pdb
REMARK  218 active torsions:
REMARK  status: ('A' for Active; 'I' for Inactive)
REMARK    1  A    between atoms: _1  and  _3
REMARK    2  A    between atoms: _3  and  _4
REMARK    3  A    between atoms: _3  and  _6
REMARK    4  A    between atoms: _6  and  _7
REMARK    5  A    between atoms: _7  and  _8
REMARK    6  A    between atoms: _8  and  _9
REMARK    7  A    between atoms: _18  and  _20
REMARK    8  A    between atoms: _20  and  _21
REMARK    9  A    between atoms: _20  and  _23
REMARK   10  A    between atoms: _24  and  _25
REMARK   11  A    between atoms: _28  and  _30
REMARK   12  A    between atoms: _30  and  _31
REMARK   13  A    between atoms: _30  and  _33
REMARK   14  A    between atoms: _33  and  _34
REMARK   15  A    between atoms: _37  and  _39
REMARK   16  A    between atoms: _39  and  _40
REMARK   17  A    between atoms: _42  and  _44
REMARK   18  A    between atoms: _44  and  _45
REMARK   19  A    between atoms: _44  and  _47
REMARK   20  A    between atoms: _47  and  _48
REMARK   21  A    between atoms: _48  and  _49
REMARK   22  A    between atoms: _54  and  _56
REMARK   23  A    between atoms: _56  and  _57
REMARK   24  A    between atoms: _59  and  _61
REMARK   25  A    between atoms: _61  and  _62
REMARK   26  A    between atoms: _61  and  _64
REMARK   27  A    between atoms: _64  and  _65
REMARK   28  A    between atoms: _67  and  _69
REMARK   29  A    between atoms: _69  and  _70
REMARK   30  A    between atoms: _69  and  _72
REMARK   31  A    between atoms: _72  and  _73
REMARK   32  A    between atoms: _79  and  _81
REMARK   33  A    between atoms: _81  and  _82
REMARK   34  A    between atoms: _84  and  _86
REMARK   35  A    between atoms: _86  and  _87
REMARK   36  A    between atoms: _86  and  _89
REMARK   37  A    between atoms: _89  and  _90
REMARK   38  A    between atoms: _90  and  _91
REMARK   39  A    between atoms: _93  and  _95
REMARK   40  A    between atoms: _95  and  _96
REMARK   41  A    between atoms: _95  and  _98
REMARK   42  A    between atoms: _101  and  _103
REMARK   43  A    between atoms: _103  and  _104
REMARK   44  A    between atoms: _103  and  _106
REMARK   45  A    between atoms: _106  and  _107
REMARK   46  A    between atoms: _112  and  _113
REMARK   47  A    between atoms: _115  and  _117
REMARK   48  A    between atoms: _117  and  _118
REMARK   49  A    between atoms: _117  and  _120
REMARK   50  A    between atoms: _120  and  _121
REMARK   51  A    between atoms: _121  and  _122
REMARK   52  A    between atoms: _125  and  _127
REMARK   53  A    between atoms: _127  and  _128
REMARK   54  A    between atoms: _130  and  _132
REMARK   55  A    between atoms: _132  and  _133
REMARK   56  A    between atoms: _132  and  _135
REMARK   57  A    between atoms: _135  and  _136
REMARK   58  A    between atoms: _136  and  _137
REMARK   59  A    between atoms: _137  and  _138
REMARK   60  A    between atoms: _147  and  _149
REMARK   61  A    between atoms: _149  and  _150
REMARK   62  A    between atoms: _149  and  _152
REMARK   63  A    between atoms: _155  and  _157
REMARK   64  A    between atoms: _157  and  _158
REMARK   65  A    between atoms: _161  and  _163
REMARK   66  A    between atoms: _163  and  _164
REMARK   67  A    between atoms: _163  and  _166
REMARK   68  A    between atoms: _169  and  _171
REMARK   69  A    between atoms: _171  and  _172
REMARK   70  A    between atoms: _171  and  _174
REMARK   71  A    between atoms: _174  and  _175
REMARK   72  A    between atoms: _175  and  _176
REMARK   73  A    between atoms: _176  and  _177
REMARK   74  A    between atoms: _177  and  _178
REMARK   75  A    between atoms: _182  and  _184
REMARK   76  A    between atoms: _184  and  _185
REMARK   77  A    between atoms: _184  and  _187
REMARK   78  A    between atoms: _187  and  _188
REMARK   79  A    between atoms: _191  and  _193
REMARK   80  A    between atoms: _193  and  _194
REMARK   81  A    between atoms: _193  and  _196
REMARK   82  A    between atoms: _199  and  _201
REMARK   83  A    between atoms: _201  and  _202
REMARK   84  A    between atoms: _201  and  _204
REMARK   85  A    between atoms: _207  and  _209
REMARK   86  A    between atoms: _209  and  _210
REMARK   87  A    between atoms: _209  and  _212
REMARK   88  A    between atoms: _212  and  _213
REMARK   89  A    between atoms: _213  and  _214
REMARK   90  A    between atoms: _214  and  _215
REMARK   91  A    between atoms: _224  and  _226
REMARK   92  A    between atoms: _226  and  _227
REMARK   93  A    between atoms: _226  and  _229
REMARK   94  A    between atoms: _232  and  _234
REMARK   95  A    between atoms: _234  and  _235
REMARK   96  A    between atoms: _234  and  _237
REMARK   97  A    between atoms: _240  and  _242
REMARK   98  A    between atoms: _242  and  _243
REMARK   99  A    between atoms: _242  and  _245
REMARK  100  A    between atoms: _245  and  _246
REMARK  101  A    between atoms: _246  and  _247
REMARK  102  A    between atoms: _249  and  _251
REMARK  103  A    between atoms: _251  and  _252
REMARK  104  A    between atoms: _251  and  _254
REMARK  105  A    between atoms: _255  and  _256
REMARK  106  A    between atoms: _259  and  _261
REMARK  107  A    between atoms: _261  and  _262
REMARK  108  A    between atoms: _261  and  _264
REMARK  109  A    between atoms: _264  and  _265
REMARK  110  A    between atoms: _268  and  _270
REMARK  111  A    between atoms: _270  and  _271
REMARK  112  A    between atoms: _270  and  _273
REMARK  113  A    between atoms: _273  and  _274
REMARK  114  A    between atoms: _274  and  _275
REMARK  115  A    between atoms: _277  and  _279
REMARK  116  A    between atoms: _279  and  _280
REMARK  117  A    between atoms: _283  and  _285
REMARK  118  A    between atoms: _285  and  _286
REMARK  119  A    between atoms: _285  and  _288
REMARK  120  A    between atoms: _288  and  _289
REMARK  121  A    between atoms: _294  and  _296
REMARK  122  A    between atoms: _296  and  _297
REMARK  123  A    between atoms: _299  and  _301
REMARK  124  A    between atoms: _301  and  _302
REMARK  125  A    between atoms: _301  and  _304
REMARK  126  A    between atoms: _304  and  _305
REMARK  127  A    between atoms: _308  and  _310
REMARK  128  A    between atoms: _310  and  _311
REMARK  129  A    between atoms: _310  and  _313
REMARK  130  A    between atoms: _313  and  _314
REMARK  131  A    between atoms: _317  and  _319
REMARK  132  A    between atoms: _319  and  _320
REMARK  133  A    between atoms: _319  and  _322
REMARK  134  A    between atoms: _322  and  _323
REMARK  135  A    between atoms: _323  and  _324
REMARK  136  A    between atoms: _324  and  _325
REMARK  137  A    between atoms: _325  and  _326
REMARK  138  A    between atoms: _330  and  _332
REMARK  139  A    between atoms: _332  and  _333
REMARK  140  A    between atoms: _332  and  _335
REMARK  141  A    between atoms: _335  and  _336
REMARK  142  A    between atoms: _338  and  _340
REMARK  143  A    between atoms: _340  and  _341
REMARK  144  A    between atoms: _340  and  _343
REMARK  145  A    between atoms: _343  and  _344
REMARK  146  A    between atoms: _349  and  _350
REMARK  147  A    between atoms: _352  and  _354
REMARK  148  A    between atoms: _354  and  _355
REMARK  149  A    between atoms: _354  and  _357
REMARK  150  A    between atoms: _357  and  _358
REMARK  151  A    between atoms: _360  and  _362
REMARK  152  A    between atoms: _362  and  _363
REMARK  153  A    between atoms: _362  and  _365
REMARK  154  A    between atoms: _365  and  _366
REMARK  155  A    between atoms: _369  and  _371
REMARK  156  A    between atoms: _371  and  _372
REMARK  157  A    between atoms: _371  and  _374
REMARK  158  A    between atoms: _374  and  _375
REMARK  159  A    between atoms: _375  and  _376
REMARK  160  A    between atoms: _379  and  _381
REMARK  161  A    between atoms: _381  and  _382
REMARK  162  A    between atoms: _381  and  _384
REMARK  163  A    between atoms: _384  and  _385
REMARK  164  A    between atoms: _390  and  _392
REMARK  165  A    between atoms: _392  and  _393
REMARK  166  A    between atoms: _392  and  _395
REMARK  167  A    between atoms: _395  and  _396
REMARK  168  A    between atoms: _402  and  _403
REMARK  169  A    between atoms: _408  and  _410
REMARK  170  A    between atoms: _410  and  _411
REMARK  171  A    between atoms: _413  and  _415
REMARK  172  A    between atoms: _415  and  _416
REMARK  173  A    between atoms: _415  and  _418
REMARK  174  A    between atoms: _418  and  _419
REMARK  175  A    between atoms: _419  and  _420
REMARK  176  A    between atoms: _420  and  _421
REMARK  177  A    between atoms: _430  and  _432
REMARK  178  A    between atoms: _432  and  _433
REMARK  179  A    between atoms: _432  and  _435
REMARK  180  A    between atoms: _435  and  _436
REMARK  181  A    between atoms: _436  and  _437
REMARK  182  A    between atoms: _437  and  _438
REMARK  183  A    between atoms: _447  and  _449
REMARK  184  A    between atoms: _449  and  _450
REMARK  185  A    between atoms: _449  and  _452
REMARK  186  A    between atoms: _452  and  _453
REMARK  187  A    between atoms: _458  and  _460
REMARK  188  A    between atoms: _460  and  _461
REMARK  189  A    between atoms: _460  and  _463
REMARK  190  A    between atoms: _465  and  _467
REMARK  191  A    between atoms: _467  and  _468
REMARK  192  A    between atoms: _467  and  _470
REMARK  193  A    between atoms: _470  and  _471
REMARK  194  A    between atoms: _471  and  _472
REMARK  195  A    between atoms: _474  and  _476
REMARK  196  A    between atoms: _476  and  _477
REMARK  197  A    between atoms: _476  and  _479
REMARK  198  A    between atoms: _482  and  _484
REMARK  199  A    between atoms: _484  and  _485
REMARK  200  A    between atoms: _484  and  _487
REMARK  201  A    between atoms: _487  and  _488
REMARK  202  A    between atoms: _488  and  _489
REMARK  203  A    between atoms: _489  and  _490
REMARK  204  A    between atoms: _490  and  _491
REMARK  205  A    between atoms: _495  and  _497
REMARK  206  A    between atoms: _497  and  _498
REMARK  207  A    between atoms: _497  and  _500
REMARK  208  A    between atoms: _500  and  _501
REMARK  209  A    between atoms: _504  and  _506
REMARK  210  A    between atoms: _506  and  _507
REMARK  211  A    between atoms: _509  and  _511
REMARK  212  A    between atoms: _511  and  _512
REMARK  213  A    between atoms: _511  and  _514
REMARK  214  A    between atoms: _514  and  _515
REMARK  215  A    between atoms: _518  and  _520
REMARK  216  A    between atoms: _520  and  _521
REMARK  217  A    between atoms: _520  and  _523
REMARK  218  A    between atoms: _523  and  _524
REMARK                            x       y       z     vdW  Elec       q    Type
REMARK                         _______ _______ _______ _____ _____    ______ ____
ROOT
ATOM      1  O   HOH     1      -1.126  27.871  24.385  0.00  0.00    +0.000 OA
ENDROOT
TORSDOF 0
REMARK  Name = ../refined-set-2016/5e1s/5e1s_pocket.pdb
REMARK  218 active torsions:
REMARK  status: ('A' for Active; 'I' for Inactive)
REMARK    1  A    between atoms: _1  and  _3
REMARK    2  A    between atoms: _3  and  _4
REMARK    3  A    between atoms: _3  and  _6
REMARK    4  A    between atoms: _6  and  _7
REMARK    5  A    between atoms: _7  and  _8
REMARK    6  A    between atoms: _8  and  _9
REMARK    7  A    between atoms: _18  and  _20
REMARK    8  A    between atoms: _20  and  _21
REMARK    9  A    between atoms: _20  and  _23
REMARK   10  A    between atoms: _24  and  _25
REMARK   11  A    between atoms: _28  and  _30
REMARK   12  A    between atoms: _30  and  _31
REMARK   13  A    between atoms: _30  and  _33
REMARK   14  A    between atoms: _33  and  _34
REMARK   15  A    between atoms: _37  and  _39
REMARK   16  A    between atoms: _39  and  _40
REMARK   17  A    between atoms: _42  and  _44
REMARK   18  A    between atoms: _44  and  _45
REMARK   19  A    between atoms: _44  and  _47
REMARK   20  A    between atoms: _47  and  _48
REMARK   21  A    between atoms: _48  and  _49
REMARK   22  A    between atoms: _54  and  _56
REMARK   23  A    between atoms: _56  and  _57
REMARK   24  A    between atoms: _59  and  _61
REMARK   25  A    between atoms: _61  and  _62
REMARK   26  A    between atoms: _61  and  _64
REMARK   27  A    between atoms: _64  and  _65
REMARK   28  A    between atoms: _67  and  _69
REMARK   29  A    between atoms: _69  and  _70
REMARK   30  A    between atoms: _69  and  _72
REMARK   31  A    between atoms: _72  and  _73
REMARK   32  A    between atoms: _79  and  _81
REMARK   33  A    between atoms: _81  and  _82
REMARK   34  A    between atoms: _84  and  _86
REMARK   35  A    between atoms: _86  and  _87
REMARK   36  A    between atoms: _86  and  _89
REMARK   37  A    between atoms: _89  and  _90
REMARK   38  A    between atoms: _90  and  _91
REMARK   39  A    between atoms: _93  and  _95
REMARK   40  A    between atoms: _95  and  _96
REMARK   41  A    between atoms: _95  and  _98
REMARK   42  A    between atoms: _101  and  _103
REMARK   43  A    between atoms: _103  and  _104
REMARK   44  A    between atoms: _103  and  _106
REMARK   45  A    between atoms: _106  and  _107
REMARK   46  A    between atoms: _112  and  _113
REMARK   47  A    between atoms: _115  and  _117
REMARK   48  A    between atoms: _117  and  _118
REMARK   49  A    between atoms: _117  and  _120
REMARK   50  A    between atoms: _120  and  _121
REMARK   51  A    between atoms: _121  and  _122
REMARK   52  A    between atoms: _125  and  _127
REMARK   53  A    between atoms: _127  and  _128
REMARK   54  A    between atoms: _130  and  _132
REMARK   55  A    between atoms: _132  and  _133
REMARK   56  A    between atoms: _132  and  _135
REMARK   57  A    between atoms: _135  and  _136
REMARK   58  A    between atoms: _136  and  _137
REMARK   59  A    between atoms: _137  and  _138
REMARK   60  A    between atoms: _147  and  _149
REMARK   61  A    between atoms: _149  and  _150
REMARK   62  A    between atoms: _149  and  _152
REMARK   63  A    between atoms: _155  and  _157
REMARK   64  A    between atoms: _157  and  _158
REMARK   65  A    between atoms: _161  and  _163
REMARK   66  A    between atoms: _163  and  _164
REMARK   67  A    between atoms: _163  and  _166
REMARK   68  A    between atoms: _169  and  _171
REMARK   69  A    between atoms: _171  and  _172
REMARK   70  A    between atoms: _171  and  _174
REMARK   71  A    between atoms: _174  and  _175
REMARK   72  A    between atoms: _175  and  _176
REMARK   73  A    between atoms: _176  and  _177
REMARK   74  A    between atoms: _177  and  _178
REMARK   75  A    between atoms: _182  and  _184
REMARK   76  A    between atoms: _184  and  _185
REMARK   77  A    between atoms: _184  and  _187
REMARK   78  A    between atoms: _187  and  _188
REMARK   79  A    between atoms: _191  and  _193
REMARK   80  A    between atoms: _193  and  _194
REMARK   81  A    between atoms: _193  and  _196
REMARK   82  A    between atoms: _199  and  _201
REMARK   83  A    between atoms: _201  and  _202
REMARK   84  A    between atoms: _201  and  _204
REMARK   85  A    between atoms: _207  and  _209
REMARK   86  A    between atoms: _209  and  _210
REMARK   87  A    between atoms: _209  and  _212
REMARK   88  A    between atoms: _212  and  _213
REMARK   89  A    between atoms: _213  and  _214
REMARK   90  A    between atoms: _214  and  _215
REMARK   91  A    between atoms: _224  and  _226
REMARK   92  A    between atoms: _226  and  _227
REMARK   93  A    between atoms: _226  and  _229
REMARK   94  A    between atoms: _232  and  _234
REMARK   95  A    between atoms: _234  and  _235
REMARK   96  A    between atoms: _234  and  _237
REMARK   97  A    between atoms: _240  and  _242
REMARK   98  A    between atoms: _242  and  _243
REMARK   99  A    between atoms: _242  and  _245
REMARK  100  A    between atoms: _245  and  _246
REMARK  101  A    between atoms: _246  and  _247
REMARK  102  A    between atoms: _249  and  _251
REMARK  103  A    between atoms: _251  and  _252
REMARK  104  A    between atoms: _251  and  _254
REMARK  105  A    between atoms: _255  and  _256
REMARK  106  A    between atoms: _259  and  _261
REMARK  107  A    between atoms: _261  and  _262
REMARK  108  A    between atoms: _261  and  _264
REMARK  109  A    between atoms: _264  and  _265
REMARK  110  A    between atoms: _268  and  _270
REMARK  111  A    between atoms: _270  and  _271
REMARK  112  A    between atoms: _270  and  _273
REMARK  113  A    between atoms: _273  and  _274
REMARK  114  A    between atoms: _274  and  _275
REMARK  115  A    between atoms: _277  and  _279
REMARK  116  A    between atoms: _279  and  _280
REMARK  117  A    between atoms: _283  and  _285
REMARK  118  A    between atoms: _285  and  _286
REMARK  119  A    between atoms: _285  and  _288
REMARK  120  A    between atoms: _288  and  _289
REMARK  121  A    between atoms: _294  and  _296
REMARK  122  A    between atoms: _296  and  _297
REMARK  123  A    between atoms: _299  and  _301
REMARK  124  A    between atoms: _301  and  _302
REMARK  125  A    between atoms: _301  and  _304
REMARK  126  A    between atoms: _304  and  _305
REMARK  127  A    between atoms: _308  and  _310
REMARK  128  A    between atoms: _310  and  _311
REMARK  129  A    between atoms: _310  and  _313
REMARK  130  A    between atoms: _313  and  _314
REMARK  131  A    between atoms: _317  and  _319
REMARK  132  A    between atoms: _319  and  _320
REMARK  133  A    between atoms: _319  and  _322
REMARK  134  A    between atoms: _322  and  _323
REMARK  135  A    between atoms: _323  and  _324
REMARK  136  A    between atoms: _324  and  _325
REMARK  137  A    between atoms: _325  and  _326
REMARK  138  A    between atoms: _330  and  _332
REMARK  139  A    between atoms: _332  and  _333
REMARK  140  A    between atoms: _332  and  _335
REMARK  141  A    between atoms: _335  and  _336
REMARK  142  A    between atoms: _338  and  _340
REMARK  143  A    between atoms: _340  and  _341
REMARK  144  A    between atoms: _340  and  _343
REMARK  145  A    between atoms: _343  and  _344
REMARK  146  A    between atoms: _349  and  _350
REMARK  147  A    between atoms: _352  and  _354
REMARK  148  A    between atoms: _354  and  _355
REMARK  149  A    between atoms: _354  and  _357
REMARK  150  A    between atoms: _357  and  _358
REMARK  151  A    between atoms: _360  and  _362
REMARK  152  A    between atoms: _362  and  _363
REMARK  153  A    between atoms: _362  and  _365
REMARK  154  A    between atoms: _365  and  _366
REMARK  155  A    between atoms: _369  and  _371
REMARK  156  A    between atoms: _371  and  _372
REMARK  157  A    between atoms: _371  and  _374
REMARK  158  A    between atoms: _374  and  _375
REMARK  159  A    between atoms: _375  and  _376
REMARK  160  A    between atoms: _379  and  _381
REMARK  161  A    between atoms: _381  and  _382
REMARK  162  A    between atoms: _381  and  _384
REMARK  163  A    between atoms: _384  and  _385
REMARK  164  A    between atoms: _390  and  _392
REMARK  165  A    between atoms: _392  and  _393
REMARK  166  A    between atoms: _392  and  _395
REMARK  167  A    between atoms: _395  and  _396
REMARK  168  A    between atoms: _402  and  _403
REMARK  169  A    between atoms: _408  and  _410
REMARK  170  A    between atoms: _410  and  _411
REMARK  171  A    between atoms: _413  and  _415
REMARK  172  A    between atoms: _415  and  _416
REMARK  173  A    between atoms: _415  and  _418
REMARK  174  A    between atoms: _418  and  _419
REMARK  175  A    between atoms: _419  and  _420
REMARK  176  A    between atoms: _420  and  _421
REMARK  177  A    between atoms: _430  and  _432
REMARK  178  A    between atoms: _432  and  _433
REMARK  179  A    between atoms: _432  and  _435
REMARK  180  A    between atoms: _435  and  _436
REMARK  181  A    between atoms: _436  and  _437
REMARK  182  A    between atoms: _437  and  _438
REMARK  183  A    between atoms: _447  and  _449
REMARK  184  A    between atoms: _449  and  _450
REMARK  185  A    between atoms: _449  and  _452
REMARK  186  A    between atoms: _452  and  _453
REMARK  187  A    between atoms: _458  and  _460
REMARK  188  A    between atoms: _460  and  _461
REMARK  189  A    between atoms: _460  and  _463
REMARK  190  A    between atoms: _465  and  _467
REMARK  191  A    between atoms: _467  and  _468
REMARK  192  A    between atoms: _467  and  _470
REMARK  193  A    between atoms: _470  and  _471
REMARK  194  A    between atoms: _471  and  _472
REMARK  195  A    between atoms: _474  and  _476
REMARK  196  A    between atoms: _476  and  _477
REMARK  197  A    between atoms: _476  and  _479
REMARK  198  A    between atoms: _482  and  _484
REMARK  199  A    between atoms: _484  and  _485
REMARK  200  A    between atoms: _484  and  _487
REMARK  201  A    between atoms: _487  and  _488
REMARK  202  A    between atoms: _488  and  _489
REMARK  203  A    between atoms: _489  and  _490
REMARK  204  A    between atoms: _490  and  _491
REMARK  205  A    between atoms: _495  and  _497
REMARK  206  A    between atoms: _497  and  _498
REMARK  207  A    between atoms: _497  and  _500
REMARK  208  A    between atoms: _500  and  _501
REMARK  209  A    between atoms: _504  and  _506
REMARK  210  A    between atoms: _506  and  _507
REMARK  211  A    between atoms: _509  and  _511
REMARK  212  A    between atoms: _511  and  _512
REMARK  213  A    between atoms: _511  and  _514
REMARK  214  A    between atoms: _514  and  _515
REMARK  215  A    between atoms: _518  and  _520
REMARK  216  A    between atoms: _520  and  _521
REMARK  217  A    between atoms: _520  and  _523
REMARK  218  A    between atoms: _523  and  _524
REMARK                            x       y       z     vdW  Elec       q    Type
REMARK                         _______ _______ _______ _____ _____    ______ ____
ROOT
ATOM      1  O   HOH     1       9.804  29.806  15.712  0.00  0.00    +0.000 OA
ENDROOT
TORSDOF 0
REMARK  Name = ../refined-set-2016/5e1s/5e1s_pocket.pdb
REMARK  218 active torsions:
REMARK  status: ('A' for Active; 'I' for Inactive)
REMARK    1  A    between atoms: _1  and  _3
REMARK    2  A    between atoms: _3  and  _4
REMARK    3  A    between atoms: _3  and  _6
REMARK    4  A    between atoms: _6  and  _7
REMARK    5  A    between atoms: _7  and  _8
REMARK    6  A    between atoms: _8  and  _9
REMARK    7  A    between atoms: _18  and  _20
REMARK    8  A    between atoms: _20  and  _21
REMARK    9  A    between atoms: _20  and  _23
REMARK   10  A    between atoms: _24  and  _25
REMARK   11  A    between atoms: _28  and  _30
REMARK   12  A    between atoms: _30  and  _31
REMARK   13  A    between atoms: _30  and  _33
REMARK   14  A    between atoms: _33  and  _34
REMARK   15  A    between atoms: _37  and  _39
REMARK   16  A    between atoms: _39  and  _40
REMARK   17  A    between atoms: _42  and  _44
REMARK   18  A    between atoms: _44  and  _45
REMARK   19  A    between atoms: _44  and  _47
REMARK   20  A    between atoms: _47  and  _48
REMARK   21  A    between atoms: _48  and  _49
REMARK   22  A    between atoms: _54  and  _56
REMARK   23  A    between atoms: _56  and  _57
REMARK   24  A    between atoms: _59  and  _61
REMARK   25  A    between atoms: _61  and  _62
REMARK   26  A    between atoms: _61  and  _64
REMARK   27  A    between atoms: _64  and  _65
REMARK   28  A    between atoms: _67  and  _69
REMARK   29  A    between atoms: _69  and  _70
REMARK   30  A    between atoms: _69  and  _72
REMARK   31  A    between atoms: _72  and  _73
REMARK   32  A    between atoms: _79  and  _81
REMARK   33  A    between atoms: _81  and  _82
REMARK   34  A    between atoms: _84  and  _86
REMARK   35  A    between atoms: _86  and  _87
REMARK   36  A    between atoms: _86  and  _89
REMARK   37  A    between atoms: _89  and  _90
REMARK   38  A    between atoms: _90  and  _91
REMARK   39  A    between atoms: _93  and  _95
REMARK   40  A    between atoms: _95  and  _96
REMARK   41  A    between atoms: _95  and  _98
REMARK   42  A    between atoms: _101  and  _103
REMARK   43  A    between atoms: _103  and  _104
REMARK   44  A    between atoms: _103  and  _106
REMARK   45  A    between atoms: _106  and  _107
REMARK   46  A    between atoms: _112  and  _113
REMARK   47  A    between atoms: _115  and  _117
REMARK   48  A    between atoms: _117  and  _118
REMARK   49  A    between atoms: _117  and  _120
REMARK   50  A    between atoms: _120  and  _121
REMARK   51  A    between atoms: _121  and  _122
REMARK   52  A    between atoms: _125  and  _127
REMARK   53  A    between atoms: _127  and  _128
REMARK   54  A    between atoms: _130  and  _132
REMARK   55  A    between atoms: _132  and  _133
REMARK   56  A    between atoms: _132  and  _135
REMARK   57  A    between atoms: _135  and  _136
REMARK   58  A    between atoms: _136  and  _137
REMARK   59  A    between atoms: _137  and  _138
REMARK   60  A    between atoms: _147  and  _149
REMARK   61  A    between atoms: _149  and  _150
REMARK   62  A    between atoms: _149  and  _152
REMARK   63  A    between atoms: _155  and  _157
REMARK   64  A    between atoms: _157  and  _158
REMARK   65  A    between atoms: _161  and  _163
REMARK   66  A    between atoms: _163  and  _164
REMARK   67  A    between atoms: _163  and  _166
REMARK   68  A    between atoms: _169  and  _171
REMARK   69  A    between atoms: _171  and  _172
REMARK   70  A    between atoms: _171  and  _174
REMARK   71  A    between atoms: _174  and  _175
REMARK   72  A    between atoms: _175  and  _176
REMARK   73  A    between atoms: _176  and  _177
REMARK   74  A    between atoms: _177  and  _178
REMARK   75  A    between atoms: _182  and  _184
REMARK   76  A    between atoms: _184  and  _185
REMARK   77  A    between atoms: _184  and  _187
REMARK   78  A    between atoms: _187  and  _188
REMARK   79  A    between atoms: _191  and  _193
REMARK   80  A    between atoms: _193  and  _194
REMARK   81  A    between atoms: _193  and  _196
REMARK   82  A    between atoms: _199  and  _201
REMARK   83  A    between atoms: _201  and  _202
REMARK   84  A    between atoms: _201  and  _204
REMARK   85  A    between atoms: _207  and  _209
REMARK   86  A    between atoms: _209  and  _210
REMARK   87  A    between atoms: _209  and  _212
REMARK   88  A    between atoms: _212  and  _213
REMARK   89  A    between atoms: _213  and  _214
REMARK   90  A    between atoms: _214  and  _215
REMARK   91  A    between atoms: _224  and  _226
REMARK   92  A    between atoms: _226  and  _227
REMARK   93  A    between atoms: _226  and  _229
REMARK   94  A    between atoms: _232  and  _234
REMARK   95  A    between atoms: _234  and  _235
REMARK   96  A    between atoms: _234  and  _237
REMARK   97  A    between atoms: _240  and  _242
REMARK   98  A    between atoms: _242  and  _243
REMARK   99  A    between atoms: _242  and  _245
REMARK  100  A    between atoms: _245  and  _246
REMARK  101  A    between atoms: _246  and  _247
REMARK  102  A    between atoms: _249  and  _251
REMARK  103  A    between atoms: _251  and  _252
REMARK  104  A    between atoms: _251  and  _254
REMARK  105  A    between atoms: _255  and  _256
REMARK  106  A    between atoms: _259  and  _261
REMARK  107  A    between atoms: _261  and  _262
REMARK  108  A    between atoms: _261  and  _264
REMARK  109  A    between atoms: _264  and  _265
REMARK  110  A    between atoms: _268  and  _270
REMARK  111  A    between atoms: _270  and  _271
REMARK  112  A    between atoms: _270  and  _273
REMARK  113  A    between atoms: _273  and  _274
REMARK  114  A    between atoms: _274  and  _275
REMARK  115  A    between atoms: _277  and  _279
REMARK  116  A    between atoms: _279  and  _280
REMARK  117  A    between atoms: _283  and  _285
REMARK  118  A    between atoms: _285  and  _286
REMARK  119  A    between atoms: _285  and  _288
REMARK  120  A    between atoms: _288  and  _289
REMARK  121  A    between atoms: _294  and  _296
REMARK  122  A    between atoms: _296  and  _297
REMARK  123  A    between atoms: _299  and  _301
REMARK  124  A    between atoms: _301  and  _302
REMARK  125  A    between atoms: _301  and  _304
REMARK  126  A    between atoms: _304  and  _305
REMARK  127  A    between atoms: _308  and  _310
REMARK  128  A    between atoms: _310  and  _311
REMARK  129  A    between atoms: _310  and  _313
REMARK  130  A    between atoms: _313  and  _314
REMARK  131  A    between atoms: _317  and  _319
REMARK  132  A    between atoms: _319  and  _320
REMARK  133  A    between atoms: _319  and  _322
REMARK  134  A    between atoms: _322  and  _323
REMARK  135  A    between atoms: _323  and  _324
REMARK  136  A    between atoms: _324  and  _325
REMARK  137  A    between atoms: _325  and  _326
REMARK  138  A    between atoms: _330  and  _332
REMARK  139  A    between atoms: _332  and  _333
REMARK  140  A    between atoms: _332  and  _335
REMARK  141  A    between atoms: _335  and  _336
REMARK  142  A    between atoms: _338  and  _340
REMARK  143  A    between atoms: _340  and  _341
REMARK  144  A    between atoms: _340  and  _343
REMARK  145  A    between atoms: _343  and  _344
REMARK  146  A    between atoms: _349  and  _350
REMARK  147  A    between atoms: _352  and  _354
REMARK  148  A    between atoms: _354  and  _355
REMARK  149  A    between atoms: _354  and  _357
REMARK  150  A    between atoms: _357  and  _358
REMARK  151  A    between atoms: _360  and  _362
REMARK  152  A    between atoms: _362  and  _363
REMARK  153  A    between atoms: _362  and  _365
REMARK  154  A    between atoms: _365  and  _366
REMARK  155  A    between atoms: _369  and  _371
REMARK  156  A    between atoms: _371  and  _372
REMARK  157  A    between atoms: _371  and  _374
REMARK  158  A    between atoms: _374  and  _375
REMARK  159  A    between atoms: _375  and  _376
REMARK  160  A    between atoms: _379  and  _381
REMARK  161  A    between atoms: _381  and  _382
REMARK  162  A    between atoms: _381  and  _384
REMARK  163  A    between atoms: _384  and  _385
REMARK  164  A    between atoms: _390  and  _392
REMARK  165  A    between atoms: _392  and  _393
REMARK  166  A    between atoms: _392  and  _395
REMARK  167  A    between atoms: _395  and  _396
REMARK  168  A    between atoms: _402  and  _403
REMARK  169  A    between atoms: _408  and  _410
REMARK  170  A    between atoms: _410  and  _411
REMARK  171  A    between atoms: _413  and  _415
REMARK  172  A    between atoms: _415  and  _416
REMARK  173  A    between atoms: _415  and  _418
REMARK  174  A    between atoms: _418  and  _419
REMARK  175  A    between atoms: _419  and  _420
REMARK  176  A    between atoms: _420  and  _421
REMARK  177  A    between atoms: _430  and  _432
REMARK  178  A    between atoms: _432  and  _433
REMARK  179  A    between atoms: _432  and  _435
REMARK  180  A    between atoms: _435  and  _436
REMARK  181  A    between atoms: _436  and  _437
REMARK  182  A    between atoms: _437  and  _438
REMARK  183  A    between atoms: _447  and  _449
REMARK  184  A    between atoms: _449  and  _450
REMARK  185  A    between atoms: _449  and  _452
REMARK  186  A    between atoms: _452  and  _453
REMARK  187  A    between atoms: _458  and  _460
REMARK  188  A    between atoms: _460  and  _461
REMARK  189  A    between atoms: _460  and  _463
REMARK  190  A    between atoms: _465  and  _467
REMARK  191  A    between atoms: _467  and  _468
REMARK  192  A    between atoms: _467  and  _470
REMARK  193  A    between atoms: _470  and  _471
REMARK  194  A    between atoms: _471  and  _472
REMARK  195  A    between atoms: _474  and  _476
REMARK  196  A    between atoms: _476  and  _477
REMARK  197  A    between atoms: _476  and  _479
REMARK  198  A    between atoms: _482  and  _484
REMARK  199  A    between atoms: _484  and  _485
REMARK  200  A    between atoms: _484  and  _487
REMARK  201  A    between atoms: _487  and  _488
REMARK  202  A    between atoms: _488  and  _489
REMARK  203  A    between atoms: _489  and  _490
REMARK  204  A    between atoms: _490  and  _491
REMARK  205  A    between atoms: _495  and  _497
REMARK  206  A    between atoms: _497  and  _498
REMARK  207  A    between atoms: _497  and  _500
REMARK  208  A    between atoms: _500  and  _501
REMARK  209  A    between atoms: _504  and  _506
REMARK  210  A    between atoms: _506  and  _507
REMARK  211  A    between atoms: _509  and  _511
REMARK  212  A    between atoms: _511  and  _512
REMARK  213  A    between atoms: _511  and  _514
REMARK  214  A    between atoms: _514  and  _515
REMARK  215  A    between atoms: _518  and  _520
REMARK  216  A    between atoms: _520  and  _521
REMARK  217  A    between atoms: _520  and  _523
REMARK  218  A    between atoms: _523  and  _524
REMARK                            x       y       z     vdW  Elec       q    Type
REMARK                         _______ _______ _______ _____ _____    ______ ____
ROOT
ATOM      1  O   HOH     1       3.574  16.436  31.014  0.00  0.00    +0.000 OA
ENDROOT
TORSDOF 0
REMARK  Name = ../refined-set-2016/5e1s/5e1s_pocket.pdb
REMARK  218 active torsions:
REMARK  status: ('A' for Active; 'I' for Inactive)
REMARK    1  A    between atoms: _1  and  _3
REMARK    2  A    between atoms: _3  and  _4
REMARK    3  A    between atoms: _3  and  _6
REMARK    4  A    between atoms: _6  and  _7
REMARK    5  A    between atoms: _7  and  _8
REMARK    6  A    between atoms: _8  and  _9
REMARK    7  A    between atoms: _18  and  _20
REMARK    8  A    between atoms: _20  and  _21
REMARK    9  A    between atoms: _20  and  _23
REMARK   10  A    between atoms: _24  and  _25
REMARK   11  A    between atoms: _28  and  _30
REMARK   12  A    between atoms: _30  and  _31
REMARK   13  A    between atoms: _30  and  _33
REMARK   14  A    between atoms: _33  and  _34
REMARK   15  A    between atoms: _37  and  _39
REMARK   16  A    between atoms: _39  and  _40
REMARK   17  A    between atoms: _42  and  _44
REMARK   18  A    between atoms: _44  and  _45
REMARK   19  A    between atoms: _44  and  _47
REMARK   20  A    between atoms: _47  and  _48
REMARK   21  A    between atoms: _48  and  _49
REMARK   22  A    between atoms: _54  and  _56
REMARK   23  A    between atoms: _56  and  _57
REMARK   24  A    between atoms: _59  and  _61
REMARK   25  A    between atoms: _61  and  _62
REMARK   26  A    between atoms: _61  and  _64
REMARK   27  A    between atoms: _64  and  _65
REMARK   28  A    between atoms: _67  and  _69
REMARK   29  A    between atoms: _69  and  _70
REMARK   30  A    between atoms: _69  and  _72
REMARK   31  A    between atoms: _72  and  _73
REMARK   32  A    between atoms: _79  and  _81
REMARK   33  A    between atoms: _81  and  _82
REMARK   34  A    between atoms: _84  and  _86
REMARK   35  A    between atoms: _86  and  _87
REMARK   36  A    between atoms: _86  and  _89
REMARK   37  A    between atoms: _89  and  _90
REMARK   38  A    between atoms: _90  and  _91
REMARK   39  A    between atoms: _93  and  _95
REMARK   40  A    between atoms: _95  and  _96
REMARK   41  A    between atoms: _95  and  _98
REMARK   42  A    between atoms: _101  and  _103
REMARK   43  A    between atoms: _103  and  _104
REMARK   44  A    between atoms: _103  and  _106
REMARK   45  A    between atoms: _106  and  _107
REMARK   46  A    between atoms: _112  and  _113
REMARK   47  A    between atoms: _115  and  _117
REMARK   48  A    between atoms: _117  and  _118
REMARK   49  A    between atoms: _117  and  _120
REMARK   50  A    between atoms: _120  and  _121
REMARK   51  A    between atoms: _121  and  _122
REMARK   52  A    between atoms: _125  and  _127
REMARK   53  A    between atoms: _127  and  _128
REMARK   54  A    between atoms: _130  and  _132
REMARK   55  A    between atoms: _132  and  _133
REMARK   56  A    between atoms: _132  and  _135
REMARK   57  A    between atoms: _135  and  _136
REMARK   58  A    between atoms: _136  and  _137
REMARK   59  A    between atoms: _137  and  _138
REMARK   60  A    between atoms: _147  and  _149
REMARK   61  A    between atoms: _149  and  _150
REMARK   62  A    between atoms: _149  and  _152
REMARK   63  A    between atoms: _155  and  _157
REMARK   64  A    between atoms: _157  and  _158
REMARK   65  A    between atoms: _161  and  _163
REMARK   66  A    between atoms: _163  and  _164
REMARK   67  A    between atoms: _163  and  _166
REMARK   68  A    between atoms: _169  and  _171
REMARK   69  A    between atoms: _171  and  _172
REMARK   70  A    between atoms: _171  and  _174
REMARK   71  A    between atoms: _174  and  _175
REMARK   72  A    between atoms: _175  and  _176
REMARK   73  A    between atoms: _176  and  _177
REMARK   74  A    between atoms: _177  and  _178
REMARK   75  A    between atoms: _182  and  _184
REMARK   76  A    between atoms: _184  and  _185
REMARK   77  A    between atoms: _184  and  _187
REMARK   78  A    between atoms: _187  and  _188
REMARK   79  A    between atoms: _191  and  _193
REMARK   80  A    between atoms: _193  and  _194
REMARK   81  A    between atoms: _193  and  _196
REMARK   82  A    between atoms: _199  and  _201
REMARK   83  A    between atoms: _201  and  _202
REMARK   84  A    between atoms: _201  and  _204
REMARK   85  A    between atoms: _207  and  _209
REMARK   86  A    between atoms: _209  and  _210
REMARK   87  A    between atoms: _209  and  _212
REMARK   88  A    between atoms: _212  and  _213
REMARK   89  A    between atoms: _213  and  _214
REMARK   90  A    between atoms: _214  and  _215
REMARK   91  A    between atoms: _224  and  _226
REMARK   92  A    between atoms: _226  and  _227
REMARK   93  A    between atoms: _226  and  _229
REMARK   94  A    between atoms: _232  and  _234
REMARK   95  A    between atoms: _234  and  _235
REMARK   96  A    between atoms: _234  and  _237
REMARK   97  A    between atoms: _240  and  _242
REMARK   98  A    between atoms: _242  and  _243
REMARK   99  A    between atoms: _242  and  _245
REMARK  100  A    between atoms: _245  and  _246
REMARK  101  A    between atoms: _246  and  _247
REMARK  102  A    between atoms: _249  and  _251
REMARK  103  A    between atoms: _251  and  _252
REMARK  104  A    between atoms: _251  and  _254
REMARK  105  A    between atoms: _255  and  _256
REMARK  106  A    between atoms: _259  and  _261
REMARK  107  A    between atoms: _261  and  _262
REMARK  108  A    between atoms: _261  and  _264
REMARK  109  A    between atoms: _264  and  _265
REMARK  110  A    between atoms: _268  and  _270
REMARK  111  A    between atoms: _270  and  _271
REMARK  112  A    between atoms: _270  and  _273
REMARK  113  A    between atoms: _273  and  _274
REMARK  114  A    between atoms: _274  and  _275
REMARK  115  A    between atoms: _277  and  _279
REMARK  116  A    between atoms: _279  and  _280
REMARK  117  A    between atoms: _283  and  _285
REMARK  118  A    between atoms: _285  and  _286
REMARK  119  A    between atoms: _285  and  _288
REMARK  120  A    between atoms: _288  and  _289
REMARK  121  A    between atoms: _294  and  _296
REMARK  122  A    between atoms: _296  and  _297
REMARK  123  A    between atoms: _299  and  _301
REMARK  124  A    between atoms: _301  and  _302
REMARK  125  A    between atoms: _301  and  _304
REMARK  126  A    between atoms: _304  and  _305
REMARK  127  A    between atoms: _308  and  _310
REMARK  128  A    between atoms: _310  and  _311
REMARK  129  A    between atoms: _310  and  _313
REMARK  130  A    between atoms: _313  and  _314
REMARK  131  A    between atoms: _317  and  _319
REMARK  132  A    between atoms: _319  and  _320
REMARK  133  A    between atoms: _319  and  _322
REMARK  134  A    between atoms: _322  and  _323
REMARK  135  A    between atoms: _323  and  _324
REMARK  136  A    between atoms: _324  and  _325
REMARK  137  A    between atoms: _325  and  _326
REMARK  138  A    between atoms: _330  and  _332
REMARK  139  A    between atoms: _332  and  _333
REMARK  140  A    between atoms: _332  and  _335
REMARK  141  A    between atoms: _335  and  _336
REMARK  142  A    between atoms: _338  and  _340
REMARK  143  A    between atoms: _340  and  _341
REMARK  144  A    between atoms: _340  and  _343
REMARK  145  A    between atoms: _343  and  _344
REMARK  146  A    between atoms: _349  and  _350
REMARK  147  A    between atoms: _352  and  _354
REMARK  148  A    between atoms: _354  and  _355
REMARK  149  A    between atoms: _354  and  _357
REMARK  150  A    between atoms: _357  and  _358
REMARK  151  A    between atoms: _360  and  _362
REMARK  152  A    between atoms: _362  and  _363
REMARK  153  A    between atoms: _362  and  _365
REMARK  154  A    between atoms: _365  and  _366
REMARK  155  A    between atoms: _369  and  _371
REMARK  156  A    between atoms: _371  and  _372
REMARK  157  A    between atoms: _371  and  _374
REMARK  158  A    between atoms: _374  and  _375
REMARK  159  A    between atoms: _375  and  _376
REMARK  160  A    between atoms: _379  and  _381
REMARK  161  A    between atoms: _381  and  _382
REMARK  162  A    between atoms: _381  and  _384
REMARK  163  A    between atoms: _384  and  _385
REMARK  164  A    between atoms: _390  and  _392
REMARK  165  A    between atoms: _392  and  _393
REMARK  166  A    between atoms: _392  and  _395
REMARK  167  A    between atoms: _395  and  _396
REMARK  168  A    between atoms: _402  and  _403
REMARK  169  A    between atoms: _408  and  _410
REMARK  170  A    between atoms: _410  and  _411
REMARK  171  A    between atoms: _413  and  _415
REMARK  172  A    between atoms: _415  and  _416
REMARK  173  A    between atoms: _415  and  _418
REMARK  174  A    between atoms: _418  and  _419
REMARK  175  A    between atoms: _419  and  _420
REMARK  176  A    between atoms: _420  and  _421
REMARK  177  A    between atoms: _430  and  _432
REMARK  178  A    between atoms: _432  and  _433
REMARK  179  A    between atoms: _432  and  _435
REMARK  180  A    between atoms: _435  and  _436
REMARK  181  A    between atoms: _436  and  _437
REMARK  182  A    between atoms: _437  and  _438
REMARK  183  A    between atoms: _447  and  _449
REMARK  184  A    between atoms: _449  and  _450
REMARK  185  A    between atoms: _449  and  _452
REMARK  186  A    between atoms: _452  and  _453
REMARK  187  A    between atoms: _458  and  _460
REMARK  188  A    between atoms: _460  and  _461
REMARK  189  A    between atoms: _460  and  _463
REMARK  190  A    between atoms: _465  and  _467
REMARK  191  A    between atoms: _467  and  _468
REMARK  192  A    between atoms: _467  and  _470
REMARK  193  A    between atoms: _470  and  _471
REMARK  194  A    between atoms: _471  and  _472
REMARK  195  A    between atoms: _474  and  _476
REMARK  196  A    between atoms: _476  and  _477
REMARK  197  A    between atoms: _476  and  _479
REMARK  198  A    between atoms: _482  and  _484
REMARK  199  A    between atoms: _484  and  _485
REMARK  200  A    between atoms: _484  and  _487
REMARK  201  A    between atoms: _487  and  _488
REMARK  202  A    between atoms: _488  and  _489
REMARK  203  A    between atoms: _489  and  _490
REMARK  204  A    between atoms: _490  and  _491
REMARK  205  A    between atoms: _495  and  _497
REMARK  206  A    between atoms: _497  and  _498
REMARK  207  A    between atoms: _497  and  _500
REMARK  208  A    between atoms: _500  and  _501
REMARK  209  A    between atoms: _504  and  _506
REMARK  210  A    between atoms: _506  and  _507
REMARK  211  A    between atoms: _509  and  _511
REMARK  212  A    between atoms: _511  and  _512
REMARK  213  A    between atoms: _511  and  _514
REMARK  214  A    between atoms: _514  and  _515
REMARK  215  A    between atoms: _518  and  _520
REMARK  216  A    between atoms: _520  and  _521
REMARK  217  A    between atoms: _520  and  _523
REMARK  218  A    between atoms: _523  and  _524
REMARK                            x       y       z     vdW  Elec       q    Type
REMARK                         _______ _______ _______ _____ _____    ______ ____
ROOT
ATOM      1  O   HOH     1       0.185  14.732  14.747  0.00  0.00    +0.000 OA
ENDROOT
TORSDOF 0
REMARK  Name = ../refined-set-2016/5e1s/5e1s_pocket.pdb
REMARK  218 active torsions:
REMARK  status: ('A' for Active; 'I' for Inactive)
REMARK    1  A    between atoms: _1  and  _3
REMARK    2  A    between atoms: _3  and  _4
REMARK    3  A    between atoms: _3  and  _6
REMARK    4  A    between atoms: _6  and  _7
REMARK    5  A    between atoms: _7  and  _8
REMARK    6  A    between atoms: _8  and  _9
REMARK    7  A    between atoms: _18  and  _20
REMARK    8  A    between atoms: _20  and  _21
REMARK    9  A    between atoms: _20  and  _23
REMARK   10  A    between atoms: _24  and  _25
REMARK   11  A    between atoms: _28  and  _30
REMARK   12  A    between atoms: _30  and  _31
REMARK   13  A    between atoms: _30  and  _33
REMARK   14  A    between atoms: _33  and  _34
REMARK   15  A    between atoms: _37  and  _39
REMARK   16  A    between atoms: _39  and  _40
REMARK   17  A    between atoms: _42  and  _44
REMARK   18  A    between atoms: _44  and  _45
REMARK   19  A    between atoms: _44  and  _47
REMARK   20  A    between atoms: _47  and  _48
REMARK   21  A    between atoms: _48  and  _49
REMARK   22  A    between atoms: _54  and  _56
REMARK   23  A    between atoms: _56  and  _57
REMARK   24  A    between atoms: _59  and  _61
REMARK   25  A    between atoms: _61  and  _62
REMARK   26  A    between atoms: _61  and  _64
REMARK   27  A    between atoms: _64  and  _65
REMARK   28  A    between atoms: _67  and  _69
REMARK   29  A    between atoms: _69  and  _70
REMARK   30  A    between atoms: _69  and  _72
REMARK   31  A    between atoms: _72  and  _73
REMARK   32  A    between atoms: _79  and  _81
REMARK   33  A    between atoms: _81  and  _82
REMARK   34  A    between atoms: _84  and  _86
REMARK   35  A    between atoms: _86  and  _87
REMARK   36  A    between atoms: _86  and  _89
REMARK   37  A    between atoms: _89  and  _90
REMARK   38  A    between atoms: _90  and  _91
REMARK   39  A    between atoms: _93  and  _95
REMARK   40  A    between atoms: _95  and  _96
REMARK   41  A    between atoms: _95  and  _98
REMARK   42  A    between atoms: _101  and  _103
REMARK   43  A    between atoms: _103  and  _104
REMARK   44  A    between atoms: _103  and  _106
REMARK   45  A    between atoms: _106  and  _107
REMARK   46  A    between atoms: _112  and  _113
REMARK   47  A    between atoms: _115  and  _117
REMARK   48  A    between atoms: _117  and  _118
REMARK   49  A    between atoms: _117  and  _120
REMARK   50  A    between atoms: _120  and  _121
REMARK   51  A    between atoms: _121  and  _122
REMARK   52  A    between atoms: _125  and  _127
REMARK   53  A    between atoms: _127  and  _128
REMARK   54  A    between atoms: _130  and  _132
REMARK   55  A    between atoms: _132  and  _133
REMARK   56  A    between atoms: _132  and  _135
REMARK   57  A    between atoms: _135  and  _136
REMARK   58  A    between atoms: _136  and  _137
REMARK   59  A    between atoms: _137  and  _138
REMARK   60  A    between atoms: _147  and  _149
REMARK   61  A    between atoms: _149  and  _150
REMARK   62  A    between atoms: _149  and  _152
REMARK   63  A    between atoms: _155  and  _157
REMARK   64  A    between atoms: _157  and  _158
REMARK   65  A    between atoms: _161  and  _163
REMARK   66  A    between atoms: _163  and  _164
REMARK   67  A    between atoms: _163  and  _166
REMARK   68  A    between atoms: _169  and  _171
REMARK   69  A    between atoms: _171  and  _172
REMARK   70  A    between atoms: _171  and  _174
REMARK   71  A    between atoms: _174  and  _175
REMARK   72  A    between atoms: _175  and  _176
REMARK   73  A    between atoms: _176  and  _177
REMARK   74  A    between atoms: _177  and  _178
REMARK   75  A    between atoms: _182  and  _184
REMARK   76  A    between atoms: _184  and  _185
REMARK   77  A    between atoms: _184  and  _187
REMARK   78  A    between atoms: _187  and  _188
REMARK   79  A    between atoms: _191  and  _193
REMARK   80  A    between atoms: _193  and  _194
REMARK   81  A    between atoms: _193  and  _196
REMARK   82  A    between atoms: _199  and  _201
REMARK   83  A    between atoms: _201  and  _202
REMARK   84  A    between atoms: _201  and  _204
REMARK   85  A    between atoms: _207  and  _209
REMARK   86  A    between atoms: _209  and  _210
REMARK   87  A    between atoms: _209  and  _212
REMARK   88  A    between atoms: _212  and  _213
REMARK   89  A    between atoms: _213  and  _214
REMARK   90  A    between atoms: _214  and  _215
REMARK   91  A    between atoms: _224  and  _226
REMARK   92  A    between atoms: _226  and  _227
REMARK   93  A    between atoms: _226  and  _229
REMARK   94  A    between atoms: _232  and  _234
REMARK   95  A    between atoms: _234  and  _235
REMARK   96  A    between atoms: _234  and  _237
REMARK   97  A    between atoms: _240  and  _242
REMARK   98  A    between atoms: _242  and  _243
REMARK   99  A    between atoms: _242  and  _245
REMARK  100  A    between atoms: _245  and  _246
REMARK  101  A    between atoms: _246  and  _247
REMARK  102  A    between atoms: _249  and  _251
REMARK  103  A    between atoms: _251  and  _252
REMARK  104  A    between atoms: _251  and  _254
REMARK  105  A    between atoms: _255  and  _256
REMARK  106  A    between atoms: _259  and  _261
REMARK  107  A    between atoms: _261  and  _262
REMARK  108  A    between atoms: _261  and  _264
REMARK  109  A    between atoms: _264  and  _265
REMARK  110  A    between atoms: _268  and  _270
REMARK  111  A    between atoms: _270  and  _271
REMARK  112  A    between atoms: _270  and  _273
REMARK  113  A    between atoms: _273  and  _274
REMARK  114  A    between atoms: _274  and  _275
REMARK  115  A    between atoms: _277  and  _279
REMARK  116  A    between atoms: _279  and  _280
REMARK  117  A    between atoms: _283  and  _285
REMARK  118  A    between atoms: _285  and  _286
REMARK  119  A    between atoms: _285  and  _288
REMARK  120  A    between atoms: _288  and  _289
REMARK  121  A    between atoms: _294  and  _296
REMARK  122  A    between atoms: _296  and  _297
REMARK  123  A    between atoms: _299  and  _301
REMARK  124  A    between atoms: _301  and  _302
REMARK  125  A    between atoms: _301  and  _304
REMARK  126  A    between atoms: _304  and  _305
REMARK  127  A    between atoms: _308  and  _310
REMARK  128  A    between atoms: _310  and  _311
REMARK  129  A    between atoms: _310  and  _313
REMARK  130  A    between atoms: _313  and  _314
REMARK  131  A    between atoms: _317  and  _319
REMARK  132  A    between atoms: _319  and  _320
REMARK  133  A    between atoms: _319  and  _322
REMARK  134  A    between atoms: _322  and  _323
REMARK  135  A    between atoms: _323  and  _324
REMARK  136  A    between atoms: _324  and  _325
REMARK  137  A    between atoms: _325  and  _326
REMARK  138  A    between atoms: _330  and  _332
REMARK  139  A    between atoms: _332  and  _333
REMARK  140  A    between atoms: _332  and  _335
REMARK  141  A    between atoms: _335  and  _336
REMARK  142  A    between atoms: _338  and  _340
REMARK  143  A    between atoms: _340  and  _341
REMARK  144  A    between atoms: _340  and  _343
REMARK  145  A    between atoms: _343  and  _344
REMARK  146  A    between atoms: _349  and  _350
REMARK  147  A    between atoms: _352  and  _354
REMARK  148  A    between atoms: _354  and  _355
REMARK  149  A    between atoms: _354  and  _357
REMARK  150  A    between atoms: _357  and  _358
REMARK  151  A    between atoms: _360  and  _362
REMARK  152  A    between atoms: _362  and  _363
REMARK  153  A    between atoms: _362  and  _365
REMARK  154  A    between atoms: _365  and  _366
REMARK  155  A    between atoms: _369  and  _371
REMARK  156  A    between atoms: _371  and  _372
REMARK  157  A    between atoms: _371  and  _374
REMARK  158  A    between atoms: _374  and  _375
REMARK  159  A    between atoms: _375  and  _376
REMARK  160  A    between atoms: _379  and  _381
REMARK  161  A    between atoms: _381  and  _382
REMARK  162  A    between atoms: _381  and  _384
REMARK  163  A    between atoms: _384  and  _385
REMARK  164  A    between atoms: _390  and  _392
REMARK  165  A    between atoms: _392  and  _393
REMARK  166  A    between atoms: _392  and  _395
REMARK  167  A    between atoms: _395  and  _396
REMARK  168  A    between atoms: _402  and  _403
REMARK  169  A    between atoms: _408  and  _410
REMARK  170  A    between atoms: _410  and  _411
REMARK  171  A    between atoms: _413  and  _415
REMARK  172  A    between atoms: _415  and  _416
REMARK  173  A    between atoms: _415  and  _418
REMARK  174  A    between atoms: _418  and  _419
REMARK  175  A    between atoms: _419  and  _420
REMARK  176  A    between atoms: _420  and  _421
REMARK  177  A    between atoms: _430  and  _432
REMARK  178  A    between atoms: _432  and  _433
REMARK  179  A    between atoms: _432  and  _435
REMARK  180  A    between atoms: _435  and  _436
REMARK  181  A    between atoms: _436  and  _437
REMARK  182  A    between atoms: _437  and  _438
REMARK  183  A    between atoms: _447  and  _449
REMARK  184  A    between atoms: _449  and  _450
REMARK  185  A    between atoms: _449  and  _452
REMARK  186  A    between atoms: _452  and  _453
REMARK  187  A    between atoms: _458  and  _460
REMARK  188  A    between atoms: _460  and  _461
REMARK  189  A    between atoms: _460  and  _463
REMARK  190  A    between atoms: _465  and  _467
REMARK  191  A    between atoms: _467  and  _468
REMARK  192  A    between atoms: _467  and  _470
REMARK  193  A    between atoms: _470  and  _471
REMARK  194  A    between atoms: _471  and  _472
REMARK  195  A    between atoms: _474  and  _476
REMARK  196  A    between atoms: _476  and  _477
REMARK  197  A    between atoms: _476  and  _479
REMARK  198  A    between atoms: _482  and  _484
REMARK  199  A    between atoms: _484  and  _485
REMARK  200  A    between atoms: _484  and  _487
REMARK  201  A    between atoms: _487  and  _488
REMARK  202  A    between atoms: _488  and  _489
REMARK  203  A    between atoms: _489  and  _490
REMARK  204  A    between atoms: _490  and  _491
REMARK  205  A    between atoms: _495  and  _497
REMARK  206  A    between atoms: _497  and  _498
REMARK  207  A    between atoms: _497  and  _500
REMARK  208  A    between atoms: _500  and  _501
REMARK  209  A    between atoms: _504  and  _506
REMARK  210  A    between atoms: _506  and  _507
REMARK  211  A    between atoms: _509  and  _511
REMARK  212  A    between atoms: _511  and  _512
REMARK  213  A    between atoms: _511  and  _514
REMARK  214  A    between atoms: _514  and  _515
REMARK  215  A    between atoms: _518  and  _520
REMARK  216  A    between atoms: _520  and  _521
REMARK  217  A    between atoms: _520  and  _523
REMARK  218  A    between atoms: _523  and  _524
REMARK                            x       y       z     vdW  Elec       q    Type
REMARK                         _______ _______ _______ _____ _____    ______ ____
ROOT
ATOM      1  O   HOH     1      15.198  16.739  17.597  0.00  0.00    +0.000 OA
ENDROOT
TORSDOF 0
REMARK  Name = ../refined-set-2016/5e1s/5e1s_pocket.pdb
REMARK  218 active torsions:
REMARK  status: ('A' for Active; 'I' for Inactive)
REMARK    1  A    between atoms: _1  and  _3
REMARK    2  A    between atoms: _3  and  _4
REMARK    3  A    between atoms: _3  and  _6
REMARK    4  A    between atoms: _6  and  _7
REMARK    5  A    between atoms: _7  and  _8
REMARK    6  A    between atoms: _8  and  _9
REMARK    7  A    between atoms: _18  and  _20
REMARK    8  A    between atoms: _20  and  _21
REMARK    9  A    between atoms: _20  and  _23
REMARK   10  A    between atoms: _24  and  _25
REMARK   11  A    between atoms: _28  and  _30
REMARK   12  A    between atoms: _30  and  _31
REMARK   13  A    between atoms: _30  and  _33
REMARK   14  A    between atoms: _33  and  _34
REMARK   15  A    between atoms: _37  and  _39
REMARK   16  A    between atoms: _39  and  _40
REMARK   17  A    between atoms: _42  and  _44
REMARK   18  A    between atoms: _44  and  _45
REMARK   19  A    between atoms: _44  and  _47
REMARK   20  A    between atoms: _47  and  _48
REMARK   21  A    between atoms: _48  and  _49
REMARK   22  A    between atoms: _54  and  _56
REMARK   23  A    between atoms: _56  and  _57
REMARK   24  A    between atoms: _59  and  _61
REMARK   25  A    between atoms: _61  and  _62
REMARK   26  A    between atoms: _61  and  _64
REMARK   27  A    between atoms: _64  and  _65
REMARK   28  A    between atoms: _67  and  _69
REMARK   29  A    between atoms: _69  and  _70
REMARK   30  A    between atoms: _69  and  _72
REMARK   31  A    between atoms: _72  and  _73
REMARK   32  A    between atoms: _79  and  _81
REMARK   33  A    between atoms: _81  and  _82
REMARK   34  A    between atoms: _84  and  _86
REMARK   35  A    between atoms: _86  and  _87
REMARK   36  A    between atoms: _86  and  _89
REMARK   37  A    between atoms: _89  and  _90
REMARK   38  A    between atoms: _90  and  _91
REMARK   39  A    between atoms: _93  and  _95
REMARK   40  A    between atoms: _95  and  _96
REMARK   41  A    between atoms: _95  and  _98
REMARK   42  A    between atoms: _101  and  _103
REMARK   43  A    between atoms: _103  and  _104
REMARK   44  A    between atoms: _103  and  _106
REMARK   45  A    between atoms: _106  and  _107
REMARK   46  A    between atoms: _112  and  _113
REMARK   47  A    between atoms: _115  and  _117
REMARK   48  A    between atoms: _117  and  _118
REMARK   49  A    between atoms: _117  and  _120
REMARK   50  A    between atoms: _120  and  _121
REMARK   51  A    between atoms: _121  and  _122
REMARK   52  A    between atoms: _125  and  _127
REMARK   53  A    between atoms: _127  and  _128
REMARK   54  A    between atoms: _130  and  _132
REMARK   55  A    between atoms: _132  and  _133
REMARK   56  A    between atoms: _132  and  _135
REMARK   57  A    between atoms: _135  and  _136
REMARK   58  A    between atoms: _136  and  _137
REMARK   59  A    between atoms: _137  and  _138
REMARK   60  A    between atoms: _147  and  _149
REMARK   61  A    between atoms: _149  and  _150
REMARK   62  A    between atoms: _149  and  _152
REMARK   63  A    between atoms: _155  and  _157
REMARK   64  A    between atoms: _157  and  _158
REMARK   65  A    between atoms: _161  and  _163
REMARK   66  A    between atoms: _163  and  _164
REMARK   67  A    between atoms: _163  and  _166
REMARK   68  A    between atoms: _169  and  _171
REMARK   69  A    between atoms: _171  and  _172
REMARK   70  A    between atoms: _171  and  _174
REMARK   71  A    between atoms: _174  and  _175
REMARK   72  A    between atoms: _175  and  _176
REMARK   73  A    between atoms: _176  and  _177
REMARK   74  A    between atoms: _177  and  _178
REMARK   75  A    between atoms: _182  and  _184
REMARK   76  A    between atoms: _184  and  _185
REMARK   77  A    between atoms: _184  and  _187
REMARK   78  A    between atoms: _187  and  _188
REMARK   79  A    between atoms: _191  and  _193
REMARK   80  A    between atoms: _193  and  _194
REMARK   81  A    between atoms: _193  and  _196
REMARK   82  A    between atoms: _199  and  _201
REMARK   83  A    between atoms: _201  and  _202
REMARK   84  A    between atoms: _201  and  _204
REMARK   85  A    between atoms: _207  and  _209
REMARK   86  A    between atoms: _209  and  _210
REMARK   87  A    between atoms: _209  and  _212
REMARK   88  A    between atoms: _212  and  _213
REMARK   89  A    between atoms: _213  and  _214
REMARK   90  A    between atoms: _214  and  _215
REMARK   91  A    between atoms: _224  and  _226
REMARK   92  A    between atoms: _226  and  _227
REMARK   93  A    between atoms: _226  and  _229
REMARK   94  A    between atoms: _232  and  _234
REMARK   95  A    between atoms: _234  and  _235
REMARK   96  A    between atoms: _234  and  _237
REMARK   97  A    between atoms: _240  and  _242
REMARK   98  A    between atoms: _242  and  _243
REMARK   99  A    between atoms: _242  and  _245
REMARK  100  A    between atoms: _245  and  _246
REMARK  101  A    between atoms: _246  and  _247
REMARK  102  A    between atoms: _249  and  _251
REMARK  103  A    between atoms: _251  and  _252
REMARK  104  A    between atoms: _251  and  _254
REMARK  105  A    between atoms: _255  and  _256
REMARK  106  A    between atoms: _259  and  _261
REMARK  107  A    between atoms: _261  and  _262
REMARK  108  A    between atoms: _261  and  _264
REMARK  109  A    between atoms: _264  and  _265
REMARK  110  A    between atoms: _268  and  _270
REMARK  111  A    between atoms: _270  and  _271
REMARK  112  A    between atoms: _270  and  _273
REMARK  113  A    between atoms: _273  and  _274
REMARK  114  A    between atoms: _274  and  _275
REMARK  115  A    between atoms: _277  and  _279
REMARK  116  A    between atoms: _279  and  _280
REMARK  117  A    between atoms: _283  and  _285
REMARK  118  A    between atoms: _285  and  _286
REMARK  119  A    between atoms: _285  and  _288
REMARK  120  A    between atoms: _288  and  _289
REMARK  121  A    between atoms: _294  and  _296
REMARK  122  A    between atoms: _296  and  _297
REMARK  123  A    between atoms: _299  and  _301
REMARK  124  A    between atoms: _301  and  _302
REMARK  125  A    between atoms: _301  and  _304
REMARK  126  A    between atoms: _304  and  _305
REMARK  127  A    between atoms: _308  and  _310
REMARK  128  A    between atoms: _310  and  _311
REMARK  129  A    between atoms: _310  and  _313
REMARK  130  A    between atoms: _313  and  _314
REMARK  131  A    between atoms: _317  and  _319
REMARK  132  A    between atoms: _319  and  _320
REMARK  133  A    between atoms: _319  and  _322
REMARK  134  A    between atoms: _322  and  _323
REMARK  135  A    between atoms: _323  and  _324
REMARK  136  A    between atoms: _324  and  _325
REMARK  137  A    between atoms: _325  and  _326
REMARK  138  A    between atoms: _330  and  _332
REMARK  139  A    between atoms: _332  and  _333
REMARK  140  A    between atoms: _332  and  _335
REMARK  141  A    between atoms: _335  and  _336
REMARK  142  A    between atoms: _338  and  _340
REMARK  143  A    between atoms: _340  and  _341
REMARK  144  A    between atoms: _340  and  _343
REMARK  145  A    between atoms: _343  and  _344
REMARK  146  A    between atoms: _349  and  _350
REMARK  147  A    between atoms: _352  and  _354
REMARK  148  A    between atoms: _354  and  _355
REMARK  149  A    between atoms: _354  and  _357
REMARK  150  A    between atoms: _357  and  _358
REMARK  151  A    between atoms: _360  and  _362
REMARK  152  A    between atoms: _362  and  _363
REMARK  153  A    between atoms: _362  and  _365
REMARK  154  A    between atoms: _365  and  _366
REMARK  155  A    between atoms: _369  and  _371
REMARK  156  A    between atoms: _371  and  _372
REMARK  157  A    between atoms: _371  and  _374
REMARK  158  A    between atoms: _374  and  _375
REMARK  159  A    between atoms: _375  and  _376
REMARK  160  A    between atoms: _379  and  _381
REMARK  161  A    between atoms: _381  and  _382
REMARK  162  A    between atoms: _381  and  _384
REMARK  163  A    between atoms: _384  and  _385
REMARK  164  A    between atoms: _390  and  _392
REMARK  165  A    between atoms: _392  and  _393
REMARK  166  A    between atoms: _392  and  _395
REMARK  167  A    between atoms: _395  and  _396
REMARK  168  A    between atoms: _402  and  _403
REMARK  169  A    between atoms: _408  and  _410
REMARK  170  A    between atoms: _410  and  _411
REMARK  171  A    between atoms: _413  and  _415
REMARK  172  A    between atoms: _415  and  _416
REMARK  173  A    between atoms: _415  and  _418
REMARK  174  A    between atoms: _418  and  _419
REMARK  175  A    between atoms: _419  and  _420
REMARK  176  A    between atoms: _420  and  _421
REMARK  177  A    between atoms: _430  and  _432
REMARK  178  A    between atoms: _432  and  _433
REMARK  179  A    between atoms: _432  and  _435
REMARK  180  A    between atoms: _435  and  _436
REMARK  181  A    between atoms: _436  and  _437
REMARK  182  A    between atoms: _437  and  _438
REMARK  183  A    between atoms: _447  and  _449
REMARK  184  A    between atoms: _449  and  _450
REMARK  185  A    between atoms: _449  and  _452
REMARK  186  A    between atoms: _452  and  _453
REMARK  187  A    between atoms: _458  and  _460
REMARK  188  A    between atoms: _460  and  _461
REMARK  189  A    between atoms: _460  and  _463
REMARK  190  A    between atoms: _465  and  _467
REMARK  191  A    between atoms: _467  and  _468
REMARK  192  A    between atoms: _467  and  _470
REMARK  193  A    between atoms: _470  and  _471
REMARK  194  A    between atoms: _471  and  _472
REMARK  195  A    between atoms: _474  and  _476
REMARK  196  A    between atoms: _476  and  _477
REMARK  197  A    between atoms: _476  and  _479
REMARK  198  A    between atoms: _482  and  _484
REMARK  199  A    between atoms: _484  and  _485
REMARK  200  A    between atoms: _484  and  _487
REMARK  201  A    between atoms: _487  and  _488
REMARK  202  A    between atoms: _488  and  _489
REMARK  203  A    between atoms: _489  and  _490
REMARK  204  A    between atoms: _490  and  _491
REMARK  205  A    between atoms: _495  and  _497
REMARK  206  A    between atoms: _497  and  _498
REMARK  207  A    between atoms: _497  and  _500
REMARK  208  A    between atoms: _500  and  _501
REMARK  209  A    between atoms: _504  and  _506
REMARK  210  A    between atoms: _506  and  _507
REMARK  211  A    between atoms: _509  and  _511
REMARK  212  A    between atoms: _511  and  _512
REMARK  213  A    between atoms: _511  and  _514
REMARK  214  A    between atoms: _514  and  _515
REMARK  215  A    between atoms: _518  and  _520
REMARK  216  A    between atoms: _520  and  _521
REMARK  217  A    between atoms: _520  and  _523
REMARK  218  A    between atoms: _523  and  _524
REMARK                            x       y       z     vdW  Elec       q    Type
REMARK                         _______ _______ _______ _____ _____    ______ ____
ROOT
ATOM      1  O   HOH     1      13.838  24.515  10.501  0.00  0.00    +0.000 OA
ENDROOT
TORSDOF 0
REMARK  Name = ../refined-set-2016/5e1s/5e1s_pocket.pdb
REMARK  218 active torsions:
REMARK  status: ('A' for Active; 'I' for Inactive)
REMARK    1  A    between atoms: _1  and  _3
REMARK    2  A    between atoms: _3  and  _4
REMARK    3  A    between atoms: _3  and  _6
REMARK    4  A    between atoms: _6  and  _7
REMARK    5  A    between atoms: _7  and  _8
REMARK    6  A    between atoms: _8  and  _9
REMARK    7  A    between atoms: _18  and  _20
REMARK    8  A    between atoms: _20  and  _21
REMARK    9  A    between atoms: _20  and  _23
REMARK   10  A    between atoms: _24  and  _25
REMARK   11  A    between atoms: _28  and  _30
REMARK   12  A    between atoms: _30  and  _31
REMARK   13  A    between atoms: _30  and  _33
REMARK   14  A    between atoms: _33  and  _34
REMARK   15  A    between atoms: _37  and  _39
REMARK   16  A    between atoms: _39  and  _40
REMARK   17  A    between atoms: _42  and  _44
REMARK   18  A    between atoms: _44  and  _45
REMARK   19  A    between atoms: _44  and  _47
REMARK   20  A    between atoms: _47  and  _48
REMARK   21  A    between atoms: _48  and  _49
REMARK   22  A    between atoms: _54  and  _56
REMARK   23  A    between atoms: _56  and  _57
REMARK   24  A    between atoms: _59  and  _61
REMARK   25  A    between atoms: _61  and  _62
REMARK   26  A    between atoms: _61  and  _64
REMARK   27  A    between atoms: _64  and  _65
REMARK   28  A    between atoms: _67  and  _69
REMARK   29  A    between atoms: _69  and  _70
REMARK   30  A    between atoms: _69  and  _72
REMARK   31  A    between atoms: _72  and  _73
REMARK   32  A    between atoms: _79  and  _81
REMARK   33  A    between atoms: _81  and  _82
REMARK   34  A    between atoms: _84  and  _86
REMARK   35  A    between atoms: _86  and  _87
REMARK   36  A    between atoms: _86  and  _89
REMARK   37  A    between atoms: _89  and  _90
REMARK   38  A    between atoms: _90  and  _91
REMARK   39  A    between atoms: _93  and  _95
REMARK   40  A    between atoms: _95  and  _96
REMARK   41  A    between atoms: _95  and  _98
REMARK   42  A    between atoms: _101  and  _103
REMARK   43  A    between atoms: _103  and  _104
REMARK   44  A    between atoms: _103  and  _106
REMARK   45  A    between atoms: _106  and  _107
REMARK   46  A    between atoms: _112  and  _113
REMARK   47  A    between atoms: _115  and  _117
REMARK   48  A    between atoms: _117  and  _118
REMARK   49  A    between atoms: _117  and  _120
REMARK   50  A    between atoms: _120  and  _121
REMARK   51  A    between atoms: _121  and  _122
REMARK   52  A    between atoms: _125  and  _127
REMARK   53  A    between atoms: _127  and  _128
REMARK   54  A    between atoms: _130  and  _132
REMARK   55  A    between atoms: _132  and  _133
REMARK   56  A    between atoms: _132  and  _135
REMARK   57  A    between atoms: _135  and  _136
REMARK   58  A    between atoms: _136  and  _137
REMARK   59  A    between atoms: _137  and  _138
REMARK   60  A    between atoms: _147  and  _149
REMARK   61  A    between atoms: _149  and  _150
REMARK   62  A    between atoms: _149  and  _152
REMARK   63  A    between atoms: _155  and  _157
REMARK   64  A    between atoms: _157  and  _158
REMARK   65  A    between atoms: _161  and  _163
REMARK   66  A    between atoms: _163  and  _164
REMARK   67  A    between atoms: _163  and  _166
REMARK   68  A    between atoms: _169  and  _171
REMARK   69  A    between atoms: _171  and  _172
REMARK   70  A    between atoms: _171  and  _174
REMARK   71  A    between atoms: _174  and  _175
REMARK   72  A    between atoms: _175  and  _176
REMARK   73  A    between atoms: _176  and  _177
REMARK   74  A    between atoms: _177  and  _178
REMARK   75  A    between atoms: _182  and  _184
REMARK   76  A    between atoms: _184  and  _185
REMARK   77  A    between atoms: _184  and  _187
REMARK   78  A    between atoms: _187  and  _188
REMARK   79  A    between atoms: _191  and  _193
REMARK   80  A    between atoms: _193  and  _194
REMARK   81  A    between atoms: _193  and  _196
REMARK   82  A    between atoms: _199  and  _201
REMARK   83  A    between atoms: _201  and  _202
REMARK   84  A    between atoms: _201  and  _204
REMARK   85  A    between atoms: _207  and  _209
REMARK   86  A    between atoms: _209  and  _210
REMARK   87  A    between atoms: _209  and  _212
REMARK   88  A    between atoms: _212  and  _213
REMARK   89  A    between atoms: _213  and  _214
REMARK   90  A    between atoms: _214  and  _215
REMARK   91  A    between atoms: _224  and  _226
REMARK   92  A    between atoms: _226  and  _227
REMARK   93  A    between atoms: _226  and  _229
REMARK   94  A    between atoms: _232  and  _234
REMARK   95  A    between atoms: _234  and  _235
REMARK   96  A    between atoms: _234  and  _237
REMARK   97  A    between atoms: _240  and  _242
REMARK   98  A    between atoms: _242  and  _243
REMARK   99  A    between atoms: _242  and  _245
REMARK  100  A    between atoms: _245  and  _246
REMARK  101  A    between atoms: _246  and  _247
REMARK  102  A    between atoms: _249  and  _251
REMARK  103  A    between atoms: _251  and  _252
REMARK  104  A    between atoms: _251  and  _254
REMARK  105  A    between atoms: _255  and  _256
REMARK  106  A    between atoms: _259  and  _261
REMARK  107  A    between atoms: _261  and  _262
REMARK  108  A    between atoms: _261  and  _264
REMARK  109  A    between atoms: _264  and  _265
REMARK  110  A    between atoms: _268  and  _270
REMARK  111  A    between atoms: _270  and  _271
REMARK  112  A    between atoms: _270  and  _273
REMARK  113  A    between atoms: _273  and  _274
REMARK  114  A    between atoms: _274  and  _275
REMARK  115  A    between atoms: _277  and  _279
REMARK  116  A    between atoms: _279  and  _280
REMARK  117  A    between atoms: _283  and  _285
REMARK  118  A    between atoms: _285  and  _286
REMARK  119  A    between atoms: _285  and  _288
REMARK  120  A    between atoms: _288  and  _289
REMARK  121  A    between atoms: _294  and  _296
REMARK  122  A    between atoms: _296  and  _297
REMARK  123  A    between atoms: _299  and  _301
REMARK  124  A    between atoms: _301  and  _302
REMARK  125  A    between atoms: _301  and  _304
REMARK  126  A    between atoms: _304  and  _305
REMARK  127  A    between atoms: _308  and  _310
REMARK  128  A    between atoms: _310  and  _311
REMARK  129  A    between atoms: _310  and  _313
REMARK  130  A    between atoms: _313  and  _314
REMARK  131  A    between atoms: _317  and  _319
REMARK  132  A    between atoms: _319  and  _320
REMARK  133  A    between atoms: _319  and  _322
REMARK  134  A    between atoms: _322  and  _323
REMARK  135  A    between atoms: _323  and  _324
REMARK  136  A    between atoms: _324  and  _325
REMARK  137  A    between atoms: _325  and  _326
REMARK  138  A    between atoms: _330  and  _332
REMARK  139  A    between atoms: _332  and  _333
REMARK  140  A    between atoms: _332  and  _335
REMARK  141  A    between atoms: _335  and  _336
REMARK  142  A    between atoms: _338  and  _340
REMARK  143  A    between atoms: _340  and  _341
REMARK  144  A    between atoms: _340  and  _343
REMARK  145  A    between atoms: _343  and  _344
REMARK  146  A    between atoms: _349  and  _350
REMARK  147  A    between atoms: _352  and  _354
REMARK  148  A    between atoms: _354  and  _355
REMARK  149  A    between atoms: _354  and  _357
REMARK  150  A    between atoms: _357  and  _358
REMARK  151  A    between atoms: _360  and  _362
REMARK  152  A    between atoms: _362  and  _363
REMARK  153  A    between atoms: _362  and  _365
REMARK  154  A    between atoms: _365  and  _366
REMARK  155  A    between atoms: _369  and  _371
REMARK  156  A    between atoms: _371  and  _372
REMARK  157  A    between atoms: _371  and  _374
REMARK  158  A    between atoms: _374  and  _375
REMARK  159  A    between atoms: _375  and  _376
REMARK  160  A    between atoms: _379  and  _381
REMARK  161  A    between atoms: _381  and  _382
REMARK  162  A    between atoms: _381  and  _384
REMARK  163  A    between atoms: _384  and  _385
REMARK  164  A    between atoms: _390  and  _392
REMARK  165  A    between atoms: _392  and  _393
REMARK  166  A    between atoms: _392  and  _395
REMARK  167  A    between atoms: _395  and  _396
REMARK  168  A    between atoms: _402  and  _403
REMARK  169  A    between atoms: _408  and  _410
REMARK  170  A    between atoms: _410  and  _411
REMARK  171  A    between atoms: _413  and  _415
REMARK  172  A    between atoms: _415  and  _416
REMARK  173  A    between atoms: _415  and  _418
REMARK  174  A    between atoms: _418  and  _419
REMARK  175  A    between atoms: _419  and  _420
REMARK  176  A    between atoms: _420  and  _421
REMARK  177  A    between atoms: _430  and  _432
REMARK  178  A    between atoms: _432  and  _433
REMARK  179  A    between atoms: _432  and  _435
REMARK  180  A    between atoms: _435  and  _436
REMARK  181  A    between atoms: _436  and  _437
REMARK  182  A    between atoms: _437  and  _438
REMARK  183  A    between atoms: _447  and  _449
REMARK  184  A    between atoms: _449  and  _450
REMARK  185  A    between atoms: _449  and  _452
REMARK  186  A    between atoms: _452  and  _453
REMARK  187  A    between atoms: _458  and  _460
REMARK  188  A    between atoms: _460  and  _461
REMARK  189  A    between atoms: _460  and  _463
REMARK  190  A    between atoms: _465  and  _467
REMARK  191  A    between atoms: _467  and  _468
REMARK  192  A    between atoms: _467  and  _470
REMARK  193  A    between atoms: _470  and  _471
REMARK  194  A    between atoms: _471  and  _472
REMARK  195  A    between atoms: _474  and  _476
REMARK  196  A    between atoms: _476  and  _477
REMARK  197  A    between atoms: _476  and  _479
REMARK  198  A    between atoms: _482  and  _484
REMARK  199  A    between atoms: _484  and  _485
REMARK  200  A    between atoms: _484  and  _487
REMARK  201  A    between atoms: _487  and  _488
REMARK  202  A    between atoms: _488  and  _489
REMARK  203  A    between atoms: _489  and  _490
REMARK  204  A    between atoms: _490  and  _491
REMARK  205  A    between atoms: _495  and  _497
REMARK  206  A    between atoms: _497  and  _498
REMARK  207  A    between atoms: _497  and  _500
REMARK  208  A    between atoms: _500  and  _501
REMARK  209  A    between atoms: _504  and  _506
REMARK  210  A    between atoms: _506  and  _507
REMARK  211  A    between atoms: _509  and  _511
REMARK  212  A    between atoms: _511  and  _512
REMARK  213  A    between atoms: _511  and  _514
REMARK  214  A    between atoms: _514  and  _515
REMARK  215  A    between atoms: _518  and  _520
REMARK  216  A    between atoms: _520  and  _521
REMARK  217  A    between atoms: _520  and  _523
REMARK  218  A    between atoms: _523  and  _524
REMARK                            x       y       z     vdW  Elec       q    Type
REMARK                         _______ _______ _______ _____ _____    ______ ____
ROOT
ATOM      1  O   HOH     1      -3.288  18.664  19.699  0.00  0.00    +0.000 OA
ENDROOT
TORSDOF 0
REMARK  Name = ../refined-set-2016/5e1s/5e1s_pocket.pdb
REMARK  218 active torsions:
REMARK  status: ('A' for Active; 'I' for Inactive)
REMARK    1  A    between atoms: _1  and  _3
REMARK    2  A    between atoms: _3  and  _4
REMARK    3  A    between atoms: _3  and  _6
REMARK    4  A    between atoms: _6  and  _7
REMARK    5  A    between atoms: _7  and  _8
REMARK    6  A    between atoms: _8  and  _9
REMARK    7  A    between atoms: _18  and  _20
REMARK    8  A    between atoms: _20  and  _21
REMARK    9  A    between atoms: _20  and  _23
REMARK   10  A    between atoms: _24  and  _25
REMARK   11  A    between atoms: _28  and  _30
REMARK   12  A    between atoms: _30  and  _31
REMARK   13  A    between atoms: _30  and  _33
REMARK   14  A    between atoms: _33  and  _34
REMARK   15  A    between atoms: _37  and  _39
REMARK   16  A    between atoms: _39  and  _40
REMARK   17  A    between atoms: _42  and  _44
REMARK   18  A    between atoms: _44  and  _45
REMARK   19  A    between atoms: _44  and  _47
REMARK   20  A    between atoms: _47  and  _48
REMARK   21  A    between atoms: _48  and  _49
REMARK   22  A    between atoms: _54  and  _56
REMARK   23  A    between atoms: _56  and  _57
REMARK   24  A    between atoms: _59  and  _61
REMARK   25  A    between atoms: _61  and  _62
REMARK   26  A    between atoms: _61  and  _64
REMARK   27  A    between atoms: _64  and  _65
REMARK   28  A    between atoms: _67  and  _69
REMARK   29  A    between atoms: _69  and  _70
REMARK   30  A    between atoms: _69  and  _72
REMARK   31  A    between atoms: _72  and  _73
REMARK   32  A    between atoms: _79  and  _81
REMARK   33  A    between atoms: _81  and  _82
REMARK   34  A    between atoms: _84  and  _86
REMARK   35  A    between atoms: _86  and  _87
REMARK   36  A    between atoms: _86  and  _89
REMARK   37  A    between atoms: _89  and  _90
REMARK   38  A    between atoms: _90  and  _91
REMARK   39  A    between atoms: _93  and  _95
REMARK   40  A    between atoms: _95  and  _96
REMARK   41  A    between atoms: _95  and  _98
REMARK   42  A    between atoms: _101  and  _103
REMARK   43  A    between atoms: _103  and  _104
REMARK   44  A    between atoms: _103  and  _106
REMARK   45  A    between atoms: _106  and  _107
REMARK   46  A    between atoms: _112  and  _113
REMARK   47  A    between atoms: _115  and  _117
REMARK   48  A    between atoms: _117  and  _118
REMARK   49  A    between atoms: _117  and  _120
REMARK   50  A    between atoms: _120  and  _121
REMARK   51  A    between atoms: _121  and  _122
REMARK   52  A    between atoms: _125  and  _127
REMARK   53  A    between atoms: _127  and  _128
REMARK   54  A    between atoms: _130  and  _132
REMARK   55  A    between atoms: _132  and  _133
REMARK   56  A    between atoms: _132  and  _135
REMARK   57  A    between atoms: _135  and  _136
REMARK   58  A    between atoms: _136  and  _137
REMARK   59  A    between atoms: _137  and  _138
REMARK   60  A    between atoms: _147  and  _149
REMARK   61  A    between atoms: _149  and  _150
REMARK   62  A    between atoms: _149  and  _152
REMARK   63  A    between atoms: _155  and  _157
REMARK   64  A    between atoms: _157  and  _158
REMARK   65  A    between atoms: _161  and  _163
REMARK   66  A    between atoms: _163  and  _164
REMARK   67  A    between atoms: _163  and  _166
REMARK   68  A    between atoms: _169  and  _171
REMARK   69  A    between atoms: _171  and  _172
REMARK   70  A    between atoms: _171  and  _174
REMARK   71  A    between atoms: _174  and  _175
REMARK   72  A    between atoms: _175  and  _176
REMARK   73  A    between atoms: _176  and  _177
REMARK   74  A    between atoms: _177  and  _178
REMARK   75  A    between atoms: _182  and  _184
REMARK   76  A    between atoms: _184  and  _185
REMARK   77  A    between atoms: _184  and  _187
REMARK   78  A    between atoms: _187  and  _188
REMARK   79  A    between atoms: _191  and  _193
REMARK   80  A    between atoms: _193  and  _194
REMARK   81  A    between atoms: _193  and  _196
REMARK   82  A    between atoms: _199  and  _201
REMARK   83  A    between atoms: _201  and  _202
REMARK   84  A    between atoms: _201  and  _204
REMARK   85  A    between atoms: _207  and  _209
REMARK   86  A    between atoms: _209  and  _210
REMARK   87  A    between atoms: _209  and  _212
REMARK   88  A    between atoms: _212  and  _213
REMARK   89  A    between atoms: _213  and  _214
REMARK   90  A    between atoms: _214  and  _215
REMARK   91  A    between atoms: _224  and  _226
REMARK   92  A    between atoms: _226  and  _227
REMARK   93  A    between atoms: _226  and  _229
REMARK   94  A    between atoms: _232  and  _234
REMARK   95  A    between atoms: _234  and  _235
REMARK   96  A    between atoms: _234  and  _237
REMARK   97  A    between atoms: _240  and  _242
REMARK   98  A    between atoms: _242  and  _243
REMARK   99  A    between atoms: _242  and  _245
REMARK  100  A    between atoms: _245  and  _246
REMARK  101  A    between atoms: _246  and  _247
REMARK  102  A    between atoms: _249  and  _251
REMARK  103  A    between atoms: _251  and  _252
REMARK  104  A    between atoms: _251  and  _254
REMARK  105  A    between atoms: _255  and  _256
REMARK  106  A    between atoms: _259  and  _261
REMARK  107  A    between atoms: _261  and  _262
REMARK  108  A    between atoms: _261  and  _264
REMARK  109  A    between atoms: _264  and  _265
REMARK  110  A    between atoms: _268  and  _270
REMARK  111  A    between atoms: _270  and  _271
REMARK  112  A    between atoms: _270  and  _273
REMARK  113  A    between atoms: _273  and  _274
REMARK  114  A    between atoms: _274  and  _275
REMARK  115  A    between atoms: _277  and  _279
REMARK  116  A    between atoms: _279  and  _280
REMARK  117  A    between atoms: _283  and  _285
REMARK  118  A    between atoms: _285  and  _286
REMARK  119  A    between atoms: _285  and  _288
REMARK  120  A    between atoms: _288  and  _289
REMARK  121  A    between atoms: _294  and  _296
REMARK  122  A    between atoms: _296  and  _297
REMARK  123  A    between atoms: _299  and  _301
REMARK  124  A    between atoms: _301  and  _302
REMARK  125  A    between atoms: _301  and  _304
REMARK  126  A    between atoms: _304  and  _305
REMARK  127  A    between atoms: _308  and  _310
REMARK  128  A    between atoms: _310  and  _311
REMARK  129  A    between atoms: _310  and  _313
REMARK  130  A    between atoms: _313  and  _314
REMARK  131  A    between atoms: _317  and  _319
REMARK  132  A    between atoms: _319  and  _320
REMARK  133  A    between atoms: _319  and  _322
REMARK  134  A    between atoms: _322  and  _323
REMARK  135  A    between atoms: _323  and  _324
REMARK  136  A    between atoms: _324  and  _325
REMARK  137  A    between atoms: _325  and  _326
REMARK  138  A    between atoms: _330  and  _332
REMARK  139  A    between atoms: _332  and  _333
REMARK  140  A    between atoms: _332  and  _335
REMARK  141  A    between atoms: _335  and  _336
REMARK  142  A    between atoms: _338  and  _340
REMARK  143  A    between atoms: _340  and  _341
REMARK  144  A    between atoms: _340  and  _343
REMARK  145  A    between atoms: _343  and  _344
REMARK  146  A    between atoms: _349  and  _350
REMARK  147  A    between atoms: _352  and  _354
REMARK  148  A    between atoms: _354  and  _355
REMARK  149  A    between atoms: _354  and  _357
REMARK  150  A    between atoms: _357  and  _358
REMARK  151  A    between atoms: _360  and  _362
REMARK  152  A    between atoms: _362  and  _363
REMARK  153  A    between atoms: _362  and  _365
REMARK  154  A    between atoms: _365  and  _366
REMARK  155  A    between atoms: _369  and  _371
REMARK  156  A    between atoms: _371  and  _372
REMARK  157  A    between atoms: _371  and  _374
REMARK  158  A    between atoms: _374  and  _375
REMARK  159  A    between atoms: _375  and  _376
REMARK  160  A    between atoms: _379  and  _381
REMARK  161  A    between atoms: _381  and  _382
REMARK  162  A    between atoms: _381  and  _384
REMARK  163  A    between atoms: _384  and  _385
REMARK  164  A    between atoms: _390  and  _392
REMARK  165  A    between atoms: _392  and  _393
REMARK  166  A    between atoms: _392  and  _395
REMARK  167  A    between atoms: _395  and  _396
REMARK  168  A    between atoms: _402  and  _403
REMARK  169  A    between atoms: _408  and  _410
REMARK  170  A    between atoms: _410  and  _411
REMARK  171  A    between atoms: _413  and  _415
REMARK  172  A    between atoms: _415  and  _416
REMARK  173  A    between atoms: _415  and  _418
REMARK  174  A    between atoms: _418  and  _419
REMARK  175  A    between atoms: _419  and  _420
REMARK  176  A    between atoms: _420  and  _421
REMARK  177  A    between atoms: _430  and  _432
REMARK  178  A    between atoms: _432  and  _433
REMARK  179  A    between atoms: _432  and  _435
REMARK  180  A    between atoms: _435  and  _436
REMARK  181  A    between atoms: _436  and  _437
REMARK  182  A    between atoms: _437  and  _438
REMARK  183  A    between atoms: _447  and  _449
REMARK  184  A    between atoms: _449  and  _450
REMARK  185  A    between atoms: _449  and  _452
REMARK  186  A    between atoms: _452  and  _453
REMARK  187  A    between atoms: _458  and  _460
REMARK  188  A    between atoms: _460  and  _461
REMARK  189  A    between atoms: _460  and  _463
REMARK  190  A    between atoms: _465  and  _467
REMARK  191  A    between atoms: _467  and  _468
REMARK  192  A    between atoms: _467  and  _470
REMARK  193  A    between atoms: _470  and  _471
REMARK  194  A    between atoms: _471  and  _472
REMARK  195  A    between atoms: _474  and  _476
REMARK  196  A    between atoms: _476  and  _477
REMARK  197  A    between atoms: _476  and  _479
REMARK  198  A    between atoms: _482  and  _484
REMARK  199  A    between atoms: _484  and  _485
REMARK  200  A    between atoms: _484  and  _487
REMARK  201  A    between atoms: _487  and  _488
REMARK  202  A    between atoms: _488  and  _489
REMARK  203  A    between atoms: _489  and  _490
REMARK  204  A    between atoms: _490  and  _491
REMARK  205  A    between atoms: _495  and  _497
REMARK  206  A    between atoms: _497  and  _498
REMARK  207  A    between atoms: _497  and  _500
REMARK  208  A    between atoms: _500  and  _501
REMARK  209  A    between atoms: _504  and  _506
REMARK  210  A    between atoms: _506  and  _507
REMARK  211  A    between atoms: _509  and  _511
REMARK  212  A    between atoms: _511  and  _512
REMARK  213  A    between atoms: _511  and  _514
REMARK  214  A    between atoms: _514  and  _515
REMARK  215  A    between atoms: _518  and  _520
REMARK  216  A    between atoms: _520  and  _521
REMARK  217  A    between atoms: _520  and  _523
REMARK  218  A    between atoms: _523  and  _524
REMARK                            x       y       z     vdW  Elec       q    Type
REMARK                         _______ _______ _______ _____ _____    ______ ____
ROOT
ATOM      1  O   HOH     1      -5.196  12.833  35.533  0.00  0.00    +0.000 OA
ENDROOT
TORSDOF 0
REMARK  Name = ../refined-set-2016/5e1s/5e1s_pocket.pdb
REMARK  218 active torsions:
REMARK  status: ('A' for Active; 'I' for Inactive)
REMARK    1  A    between atoms: _1  and  _3
REMARK    2  A    between atoms: _3  and  _4
REMARK    3  A    between atoms: _3  and  _6
REMARK    4  A    between atoms: _6  and  _7
REMARK    5  A    between atoms: _7  and  _8
REMARK    6  A    between atoms: _8  and  _9
REMARK    7  A    between atoms: _18  and  _20
REMARK    8  A    between atoms: _20  and  _21
REMARK    9  A    between atoms: _20  and  _23
REMARK   10  A    between atoms: _24  and  _25
REMARK   11  A    between atoms: _28  and  _30
REMARK   12  A    between atoms: _30  and  _31
REMARK   13  A    between atoms: _30  and  _33
REMARK   14  A    between atoms: _33  and  _34
REMARK   15  A    between atoms: _37  and  _39
REMARK   16  A    between atoms: _39  and  _40
REMARK   17  A    between atoms: _42  and  _44
REMARK   18  A    between atoms: _44  and  _45
REMARK   19  A    between atoms: _44  and  _47
REMARK   20  A    between atoms: _47  and  _48
REMARK   21  A    between atoms: _48  and  _49
REMARK   22  A    between atoms: _54  and  _56
REMARK   23  A    between atoms: _56  and  _57
REMARK   24  A    between atoms: _59  and  _61
REMARK   25  A    between atoms: _61  and  _62
REMARK   26  A    between atoms: _61  and  _64
REMARK   27  A    between atoms: _64  and  _65
REMARK   28  A    between atoms: _67  and  _69
REMARK   29  A    between atoms: _69  and  _70
REMARK   30  A    between atoms: _69  and  _72
REMARK   31  A    between atoms: _72  and  _73
REMARK   32  A    between atoms: _79  and  _81
REMARK   33  A    between atoms: _81  and  _82
REMARK   34  A    between atoms: _84  and  _86
REMARK   35  A    between atoms: _86  and  _87
REMARK   36  A    between atoms: _86  and  _89
REMARK   37  A    between atoms: _89  and  _90
REMARK   38  A    between atoms: _90  and  _91
REMARK   39  A    between atoms: _93  and  _95
REMARK   40  A    between atoms: _95  and  _96
REMARK   41  A    between atoms: _95  and  _98
REMARK   42  A    between atoms: _101  and  _103
REMARK   43  A    between atoms: _103  and  _104
REMARK   44  A    between atoms: _103  and  _106
REMARK   45  A    between atoms: _106  and  _107
REMARK   46  A    between atoms: _112  and  _113
REMARK   47  A    between atoms: _115  and  _117
REMARK   48  A    between atoms: _117  and  _118
REMARK   49  A    between atoms: _117  and  _120
REMARK   50  A    between atoms: _120  and  _121
REMARK   51  A    between atoms: _121  and  _122
REMARK   52  A    between atoms: _125  and  _127
REMARK   53  A    between atoms: _127  and  _128
REMARK   54  A    between atoms: _130  and  _132
REMARK   55  A    between atoms: _132  and  _133
REMARK   56  A    between atoms: _132  and  _135
REMARK   57  A    between atoms: _135  and  _136
REMARK   58  A    between atoms: _136  and  _137
REMARK   59  A    between atoms: _137  and  _138
REMARK   60  A    between atoms: _147  and  _149
REMARK   61  A    between atoms: _149  and  _150
REMARK   62  A    between atoms: _149  and  _152
REMARK   63  A    between atoms: _155  and  _157
REMARK   64  A    between atoms: _157  and  _158
REMARK   65  A    between atoms: _161  and  _163
REMARK   66  A    between atoms: _163  and  _164
REMARK   67  A    between atoms: _163  and  _166
REMARK   68  A    between atoms: _169  and  _171
REMARK   69  A    between atoms: _171  and  _172
REMARK   70  A    between atoms: _171  and  _174
REMARK   71  A    between atoms: _174  and  _175
REMARK   72  A    between atoms: _175  and  _176
REMARK   73  A    between atoms: _176  and  _177
REMARK   74  A    between atoms: _177  and  _178
REMARK   75  A    between atoms: _182  and  _184
REMARK   76  A    between atoms: _184  and  _185
REMARK   77  A    between atoms: _184  and  _187
REMARK   78  A    between atoms: _187  and  _188
REMARK   79  A    between atoms: _191  and  _193
REMARK   80  A    between atoms: _193  and  _194
REMARK   81  A    between atoms: _193  and  _196
REMARK   82  A    between atoms: _199  and  _201
REMARK   83  A    between atoms: _201  and  _202
REMARK   84  A    between atoms: _201  and  _204
REMARK   85  A    between atoms: _207  and  _209
REMARK   86  A    between atoms: _209  and  _210
REMARK   87  A    between atoms: _209  and  _212
REMARK   88  A    between atoms: _212  and  _213
REMARK   89  A    between atoms: _213  and  _214
REMARK   90  A    between atoms: _214  and  _215
REMARK   91  A    between atoms: _224  and  _226
REMARK   92  A    between atoms: _226  and  _227
REMARK   93  A    between atoms: _226  and  _229
REMARK   94  A    between atoms: _232  and  _234
REMARK   95  A    between atoms: _234  and  _235
REMARK   96  A    between atoms: _234  and  _237
REMARK   97  A    between atoms: _240  and  _242
REMARK   98  A    between atoms: _242  and  _243
REMARK   99  A    between atoms: _242  and  _245
REMARK  100  A    between atoms: _245  and  _246
REMARK  101  A    between atoms: _246  and  _247
REMARK  102  A    between atoms: _249  and  _251
REMARK  103  A    between atoms: _251  and  _252
REMARK  104  A    between atoms: _251  and  _254
REMARK  105  A    between atoms: _255  and  _256
REMARK  106  A    between atoms: _259  and  _261
REMARK  107  A    between atoms: _261  and  _262
REMARK  108  A    between atoms: _261  and  _264
REMARK  109  A    between atoms: _264  and  _265
REMARK  110  A    between atoms: _268  and  _270
REMARK  111  A    between atoms: _270  and  _271
REMARK  112  A    between atoms: _270  and  _273
REMARK  113  A    between atoms: _273  and  _274
REMARK  114  A    between atoms: _274  and  _275
REMARK  115  A    between atoms: _277  and  _279
REMARK  116  A    between atoms: _279  and  _280
REMARK  117  A    between atoms: _283  and  _285
REMARK  118  A    between atoms: _285  and  _286
REMARK  119  A    between atoms: _285  and  _288
REMARK  120  A    between atoms: _288  and  _289
REMARK  121  A    between atoms: _294  and  _296
REMARK  122  A    between atoms: _296  and  _297
REMARK  123  A    between atoms: _299  and  _301
REMARK  124  A    between atoms: _301  and  _302
REMARK  125  A    between atoms: _301  and  _304
REMARK  126  A    between atoms: _304  and  _305
REMARK  127  A    between atoms: _308  and  _310
REMARK  128  A    between atoms: _310  and  _311
REMARK  129  A    between atoms: _310  and  _313
REMARK  130  A    between atoms: _313  and  _314
REMARK  131  A    between atoms: _317  and  _319
REMARK  132  A    between atoms: _319  and  _320
REMARK  133  A    between atoms: _319  and  _322
REMARK  134  A    between atoms: _322  and  _323
REMARK  135  A    between atoms: _323  and  _324
REMARK  136  A    between atoms: _324  and  _325
REMARK  137  A    between atoms: _325  and  _326
REMARK  138  A    between atoms: _330  and  _332
REMARK  139  A    between atoms: _332  and  _333
REMARK  140  A    between atoms: _332  and  _335
REMARK  141  A    between atoms: _335  and  _336
REMARK  142  A    between atoms: _338  and  _340
REMARK  143  A    between atoms: _340  and  _341
REMARK  144  A    between atoms: _340  and  _343
REMARK  145  A    between atoms: _343  and  _344
REMARK  146  A    between atoms: _349  and  _350
REMARK  147  A    between atoms: _352  and  _354
REMARK  148  A    between atoms: _354  and  _355
REMARK  149  A    between atoms: _354  and  _357
REMARK  150  A    between atoms: _357  and  _358
REMARK  151  A    between atoms: _360  and  _362
REMARK  152  A    between atoms: _362  and  _363
REMARK  153  A    between atoms: _362  and  _365
REMARK  154  A    between atoms: _365  and  _366
REMARK  155  A    between atoms: _369  and  _371
REMARK  156  A    between atoms: _371  and  _372
REMARK  157  A    between atoms: _371  and  _374
REMARK  158  A    between atoms: _374  and  _375
REMARK  159  A    between atoms: _375  and  _376
REMARK  160  A    between atoms: _379  and  _381
REMARK  161  A    between atoms: _381  and  _382
REMARK  162  A    between atoms: _381  and  _384
REMARK  163  A    between atoms: _384  and  _385
REMARK  164  A    between atoms: _390  and  _392
REMARK  165  A    between atoms: _392  and  _393
REMARK  166  A    between atoms: _392  and  _395
REMARK  167  A    between atoms: _395  and  _396
REMARK  168  A    between atoms: _402  and  _403
REMARK  169  A    between atoms: _408  and  _410
REMARK  170  A    between atoms: _410  and  _411
REMARK  171  A    between atoms: _413  and  _415
REMARK  172  A    between atoms: _415  and  _416
REMARK  173  A    between atoms: _415  and  _418
REMARK  174  A    between atoms: _418  and  _419
REMARK  175  A    between atoms: _419  and  _420
REMARK  176  A    between atoms: _420  and  _421
REMARK  177  A    between atoms: _430  and  _432
REMARK  178  A    between atoms: _432  and  _433
REMARK  179  A    between atoms: _432  and  _435
REMARK  180  A    between atoms: _435  and  _436
REMARK  181  A    between atoms: _436  and  _437
REMARK  182  A    between atoms: _437  and  _438
REMARK  183  A    between atoms: _447  and  _449
REMARK  184  A    between atoms: _449  and  _450
REMARK  185  A    between atoms: _449  and  _452
REMARK  186  A    between atoms: _452  and  _453
REMARK  187  A    between atoms: _458  and  _460
REMARK  188  A    between atoms: _460  and  _461
REMARK  189  A    between atoms: _460  and  _463
REMARK  190  A    between atoms: _465  and  _467
REMARK  191  A    between atoms: _467  and  _468
REMARK  192  A    between atoms: _467  and  _470
REMARK  193  A    between atoms: _470  and  _471
REMARK  194  A    between atoms: _471  and  _472
REMARK  195  A    between atoms: _474  and  _476
REMARK  196  A    between atoms: _476  and  _477
REMARK  197  A    between atoms: _476  and  _479
REMARK  198  A    between atoms: _482  and  _484
REMARK  199  A    between atoms: _484  and  _485
REMARK  200  A    between atoms: _484  and  _487
REMARK  201  A    between atoms: _487  and  _488
REMARK  202  A    between atoms: _488  and  _489
REMARK  203  A    between atoms: _489  and  _490
REMARK  204  A    between atoms: _490  and  _491
REMARK  205  A    between atoms: _495  and  _497
REMARK  206  A    between atoms: _497  and  _498
REMARK  207  A    between atoms: _497  and  _500
REMARK  208  A    between atoms: _500  and  _501
REMARK  209  A    between atoms: _504  and  _506
REMARK  210  A    between atoms: _506  and  _507
REMARK  211  A    between atoms: _509  and  _511
REMARK  212  A    between atoms: _511  and  _512
REMARK  213  A    between atoms: _511  and  _514
REMARK  214  A    between atoms: _514  and  _515
REMARK  215  A    between atoms: _518  and  _520
REMARK  216  A    between atoms: _520  and  _521
REMARK  217  A    between atoms: _520  and  _523
REMARK  218  A    between atoms: _523  and  _524
REMARK                            x       y       z     vdW  Elec       q    Type
REMARK                         _______ _______ _______ _____ _____    ______ ____
ROOT
ATOM      1  O   HOH     1       7.600  28.876  25.693  0.00  0.00    +0.000 OA
ENDROOT
TORSDOF 0
REMARK  Name = ../refined-set-2016/5e1s/5e1s_pocket.pdb
REMARK  218 active torsions:
REMARK  status: ('A' for Active; 'I' for Inactive)
REMARK    1  A    between atoms: _1  and  _3
REMARK    2  A    between atoms: _3  and  _4
REMARK    3  A    between atoms: _3  and  _6
REMARK    4  A    between atoms: _6  and  _7
REMARK    5  A    between atoms: _7  and  _8
REMARK    6  A    between atoms: _8  and  _9
REMARK    7  A    between atoms: _18  and  _20
REMARK    8  A    between atoms: _20  and  _21
REMARK    9  A    between atoms: _20  and  _23
REMARK   10  A    between atoms: _24  and  _25
REMARK   11  A    between atoms: _28  and  _30
REMARK   12  A    between atoms: _30  and  _31
REMARK   13  A    between atoms: _30  and  _33
REMARK   14  A    between atoms: _33  and  _34
REMARK   15  A    between atoms: _37  and  _39
REMARK   16  A    between atoms: _39  and  _40
REMARK   17  A    between atoms: _42  and  _44
REMARK   18  A    between atoms: _44  and  _45
REMARK   19  A    between atoms: _44  and  _47
REMARK   20  A    between atoms: _47  and  _48
REMARK   21  A    between atoms: _48  and  _49
REMARK   22  A    between atoms: _54  and  _56
REMARK   23  A    between atoms: _56  and  _57
REMARK   24  A    between atoms: _59  and  _61
REMARK   25  A    between atoms: _61  and  _62
REMARK   26  A    between atoms: _61  and  _64
REMARK   27  A    between atoms: _64  and  _65
REMARK   28  A    between atoms: _67  and  _69
REMARK   29  A    between atoms: _69  and  _70
REMARK   30  A    between atoms: _69  and  _72
REMARK   31  A    between atoms: _72  and  _73
REMARK   32  A    between atoms: _79  and  _81
REMARK   33  A    between atoms: _81  and  _82
REMARK   34  A    between atoms: _84  and  _86
REMARK   35  A    between atoms: _86  and  _87
REMARK   36  A    between atoms: _86  and  _89
REMARK   37  A    between atoms: _89  and  _90
REMARK   38  A    between atoms: _90  and  _91
REMARK   39  A    between atoms: _93  and  _95
REMARK   40  A    between atoms: _95  and  _96
REMARK   41  A    between atoms: _95  and  _98
REMARK   42  A    between atoms: _101  and  _103
REMARK   43  A    between atoms: _103  and  _104
REMARK   44  A    between atoms: _103  and  _106
REMARK   45  A    between atoms: _106  and  _107
REMARK   46  A    between atoms: _112  and  _113
REMARK   47  A    between atoms: _115  and  _117
REMARK   48  A    between atoms: _117  and  _118
REMARK   49  A    between atoms: _117  and  _120
REMARK   50  A    between atoms: _120  and  _121
REMARK   51  A    between atoms: _121  and  _122
REMARK   52  A    between atoms: _125  and  _127
REMARK   53  A    between atoms: _127  and  _128
REMARK   54  A    between atoms: _130  and  _132
REMARK   55  A    between atoms: _132  and  _133
REMARK   56  A    between atoms: _132  and  _135
REMARK   57  A    between atoms: _135  and  _136
REMARK   58  A    between atoms: _136  and  _137
REMARK   59  A    between atoms: _137  and  _138
REMARK   60  A    between atoms: _147  and  _149
REMARK   61  A    between atoms: _149  and  _150
REMARK   62  A    between atoms: _149  and  _152
REMARK   63  A    between atoms: _155  and  _157
REMARK   64  A    between atoms: _157  and  _158
REMARK   65  A    between atoms: _161  and  _163
REMARK   66  A    between atoms: _163  and  _164
REMARK   67  A    between atoms: _163  and  _166
REMARK   68  A    between atoms: _169  and  _171
REMARK   69  A    between atoms: _171  and  _172
REMARK   70  A    between atoms: _171  and  _174
REMARK   71  A    between atoms: _174  and  _175
REMARK   72  A    between atoms: _175  and  _176
REMARK   73  A    between atoms: _176  and  _177
REMARK   74  A    between atoms: _177  and  _178
REMARK   75  A    between atoms: _182  and  _184
REMARK   76  A    between atoms: _184  and  _185
REMARK   77  A    between atoms: _184  and  _187
REMARK   78  A    between atoms: _187  and  _188
REMARK   79  A    between atoms: _191  and  _193
REMARK   80  A    between atoms: _193  and  _194
REMARK   81  A    between atoms: _193  and  _196
REMARK   82  A    between atoms: _199  and  _201
REMARK   83  A    between atoms: _201  and  _202
REMARK   84  A    between atoms: _201  and  _204
REMARK   85  A    between atoms: _207  and  _209
REMARK   86  A    between atoms: _209  and  _210
REMARK   87  A    between atoms: _209  and  _212
REMARK   88  A    between atoms: _212  and  _213
REMARK   89  A    between atoms: _213  and  _214
REMARK   90  A    between atoms: _214  and  _215
REMARK   91  A    between atoms: _224  and  _226
REMARK   92  A    between atoms: _226  and  _227
REMARK   93  A    between atoms: _226  and  _229
REMARK   94  A    between atoms: _232  and  _234
REMARK   95  A    between atoms: _234  and  _235
REMARK   96  A    between atoms: _234  and  _237
REMARK   97  A    between atoms: _240  and  _242
REMARK   98  A    between atoms: _242  and  _243
REMARK   99  A    between atoms: _242  and  _245
REMARK  100  A    between atoms: _245  and  _246
REMARK  101  A    between atoms: _246  and  _247
REMARK  102  A    between atoms: _249  and  _251
REMARK  103  A    between atoms: _251  and  _252
REMARK  104  A    between atoms: _251  and  _254
REMARK  105  A    between atoms: _255  and  _256
REMARK  106  A    between atoms: _259  and  _261
REMARK  107  A    between atoms: _261  and  _262
REMARK  108  A    between atoms: _261  and  _264
REMARK  109  A    between atoms: _264  and  _265
REMARK  110  A    between atoms: _268  and  _270
REMARK  111  A    between atoms: _270  and  _271
REMARK  112  A    between atoms: _270  and  _273
REMARK  113  A    between atoms: _273  and  _274
REMARK  114  A    between atoms: _274  and  _275
REMARK  115  A    between atoms: _277  and  _279
REMARK  116  A    between atoms: _279  and  _280
REMARK  117  A    between atoms: _283  and  _285
REMARK  118  A    between atoms: _285  and  _286
REMARK  119  A    between atoms: _285  and  _288
REMARK  120  A    between atoms: _288  and  _289
REMARK  121  A    between atoms: _294  and  _296
REMARK  122  A    between atoms: _296  and  _297
REMARK  123  A    between atoms: _299  and  _301
REMARK  124  A    between atoms: _301  and  _302
REMARK  125  A    between atoms: _301  and  _304
REMARK  126  A    between atoms: _304  and  _305
REMARK  127  A    between atoms: _308  and  _310
REMARK  128  A    between atoms: _310  and  _311
REMARK  129  A    between atoms: _310  and  _313
REMARK  130  A    between atoms: _313  and  _314
REMARK  131  A    between atoms: _317  and  _319
REMARK  132  A    between atoms: _319  and  _320
REMARK  133  A    between atoms: _319  and  _322
REMARK  134  A    between atoms: _322  and  _323
REMARK  135  A    between atoms: _323  and  _324
REMARK  136  A    between atoms: _324  and  _325
REMARK  137  A    between atoms: _325  and  _326
REMARK  138  A    between atoms: _330  and  _332
REMARK  139  A    between atoms: _332  and  _333
REMARK  140  A    between atoms: _332  and  _335
REMARK  141  A    between atoms: _335  and  _336
REMARK  142  A    between atoms: _338  and  _340
REMARK  143  A    between atoms: _340  and  _341
REMARK  144  A    between atoms: _340  and  _343
REMARK  145  A    between atoms: _343  and  _344
REMARK  146  A    between atoms: _349  and  _350
REMARK  147  A    between atoms: _352  and  _354
REMARK  148  A    between atoms: _354  and  _355
REMARK  149  A    between atoms: _354  and  _357
REMARK  150  A    between atoms: _357  and  _358
REMARK  151  A    between atoms: _360  and  _362
REMARK  152  A    between atoms: _362  and  _363
REMARK  153  A    between atoms: _362  and  _365
REMARK  154  A    between atoms: _365  and  _366
REMARK  155  A    between atoms: _369  and  _371
REMARK  156  A    between atoms: _371  and  _372
REMARK  157  A    between atoms: _371  and  _374
REMARK  158  A    between atoms: _374  and  _375
REMARK  159  A    between atoms: _375  and  _376
REMARK  160  A    between atoms: _379  and  _381
REMARK  161  A    between atoms: _381  and  _382
REMARK  162  A    between atoms: _381  and  _384
REMARK  163  A    between atoms: _384  and  _385
REMARK  164  A    between atoms: _390  and  _392
REMARK  165  A    between atoms: _392  and  _393
REMARK  166  A    between atoms: _392  and  _395
REMARK  167  A    between atoms: _395  and  _396
REMARK  168  A    between atoms: _402  and  _403
REMARK  169  A    between atoms: _408  and  _410
REMARK  170  A    between atoms: _410  and  _411
REMARK  171  A    between atoms: _413  and  _415
REMARK  172  A    between atoms: _415  and  _416
REMARK  173  A    between atoms: _415  and  _418
REMARK  174  A    between atoms: _418  and  _419
REMARK  175  A    between atoms: _419  and  _420
REMARK  176  A    between atoms: _420  and  _421
REMARK  177  A    between atoms: _430  and  _432
REMARK  178  A    between atoms: _432  and  _433
REMARK  179  A    between atoms: _432  and  _435
REMARK  180  A    between atoms: _435  and  _436
REMARK  181  A    between atoms: _436  and  _437
REMARK  182  A    between atoms: _437  and  _438
REMARK  183  A    between atoms: _447  and  _449
REMARK  184  A    between atoms: _449  and  _450
REMARK  185  A    between atoms: _449  and  _452
REMARK  186  A    between atoms: _452  and  _453
REMARK  187  A    between atoms: _458  and  _460
REMARK  188  A    between atoms: _460  and  _461
REMARK  189  A    between atoms: _460  and  _463
REMARK  190  A    between atoms: _465  and  _467
REMARK  191  A    between atoms: _467  and  _468
REMARK  192  A    between atoms: _467  and  _470
REMARK  193  A    between atoms: _470  and  _471
REMARK  194  A    between atoms: _471  and  _472
REMARK  195  A    between atoms: _474  and  _476
REMARK  196  A    between atoms: _476  and  _477
REMARK  197  A    between atoms: _476  and  _479
REMARK  198  A    between atoms: _482  and  _484
REMARK  199  A    between atoms: _484  and  _485
REMARK  200  A    between atoms: _484  and  _487
REMARK  201  A    between atoms: _487  and  _488
REMARK  202  A    between atoms: _488  and  _489
REMARK  203  A    between atoms: _489  and  _490
REMARK  204  A    between atoms: _490  and  _491
REMARK  205  A    between atoms: _495  and  _497
REMARK  206  A    between atoms: _497  and  _498
REMARK  207  A    between atoms: _497  and  _500
REMARK  208  A    between atoms: _500  and  _501
REMARK  209  A    between atoms: _504  and  _506
REMARK  210  A    between atoms: _506  and  _507
REMARK  211  A    between atoms: _509  and  _511
REMARK  212  A    between atoms: _511  and  _512
REMARK  213  A    between atoms: _511  and  _514
REMARK  214  A    between atoms: _514  and  _515
REMARK  215  A    between atoms: _518  and  _520
REMARK  216  A    between atoms: _520  and  _521
REMARK  217  A    between atoms: _520  and  _523
REMARK  218  A    between atoms: _523  and  _524
REMARK                            x       y       z     vdW  Elec       q    Type
REMARK                         _______ _______ _______ _____ _____    ______ ____
ROOT
ATOM      1  O   HOH     1      -0.744  19.619  19.572  0.00  0.00    +0.000 OA
ENDROOT
TORSDOF 0
REMARK  Name = ../refined-set-2016/5e1s/5e1s_pocket.pdb
REMARK  218 active torsions:
REMARK  status: ('A' for Active; 'I' for Inactive)
REMARK    1  A    between atoms: _1  and  _3
REMARK    2  A    between atoms: _3  and  _4
REMARK    3  A    between atoms: _3  and  _6
REMARK    4  A    between atoms: _6  and  _7
REMARK    5  A    between atoms: _7  and  _8
REMARK    6  A    between atoms: _8  and  _9
REMARK    7  A    between atoms: _18  and  _20
REMARK    8  A    between atoms: _20  and  _21
REMARK    9  A    between atoms: _20  and  _23
REMARK   10  A    between atoms: _24  and  _25
REMARK   11  A    between atoms: _28  and  _30
REMARK   12  A    between atoms: _30  and  _31
REMARK   13  A    between atoms: _30  and  _33
REMARK   14  A    between atoms: _33  and  _34
REMARK   15  A    between atoms: _37  and  _39
REMARK   16  A    between atoms: _39  and  _40
REMARK   17  A    between atoms: _42  and  _44
REMARK   18  A    between atoms: _44  and  _45
REMARK   19  A    between atoms: _44  and  _47
REMARK   20  A    between atoms: _47  and  _48
REMARK   21  A    between atoms: _48  and  _49
REMARK   22  A    between atoms: _54  and  _56
REMARK   23  A    between atoms: _56  and  _57
REMARK   24  A    between atoms: _59  and  _61
REMARK   25  A    between atoms: _61  and  _62
REMARK   26  A    between atoms: _61  and  _64
REMARK   27  A    between atoms: _64  and  _65
REMARK   28  A    between atoms: _67  and  _69
REMARK   29  A    between atoms: _69  and  _70
REMARK   30  A    between atoms: _69  and  _72
REMARK   31  A    between atoms: _72  and  _73
REMARK   32  A    between atoms: _79  and  _81
REMARK   33  A    between atoms: _81  and  _82
REMARK   34  A    between atoms: _84  and  _86
REMARK   35  A    between atoms: _86  and  _87
REMARK   36  A    between atoms: _86  and  _89
REMARK   37  A    between atoms: _89  and  _90
REMARK   38  A    between atoms: _90  and  _91
REMARK   39  A    between atoms: _93  and  _95
REMARK   40  A    between atoms: _95  and  _96
REMARK   41  A    between atoms: _95  and  _98
REMARK   42  A    between atoms: _101  and  _103
REMARK   43  A    between atoms: _103  and  _104
REMARK   44  A    between atoms: _103  and  _106
REMARK   45  A    between atoms: _106  and  _107
REMARK   46  A    between atoms: _112  and  _113
REMARK   47  A    between atoms: _115  and  _117
REMARK   48  A    between atoms: _117  and  _118
REMARK   49  A    between atoms: _117  and  _120
REMARK   50  A    between atoms: _120  and  _121
REMARK   51  A    between atoms: _121  and  _122
REMARK   52  A    between atoms: _125  and  _127
REMARK   53  A    between atoms: _127  and  _128
REMARK   54  A    between atoms: _130  and  _132
REMARK   55  A    between atoms: _132  and  _133
REMARK   56  A    between atoms: _132  and  _135
REMARK   57  A    between atoms: _135  and  _136
REMARK   58  A    between atoms: _136  and  _137
REMARK   59  A    between atoms: _137  and  _138
REMARK   60  A    between atoms: _147  and  _149
REMARK   61  A    between atoms: _149  and  _150
REMARK   62  A    between atoms: _149  and  _152
REMARK   63  A    between atoms: _155  and  _157
REMARK   64  A    between atoms: _157  and  _158
REMARK   65  A    between atoms: _161  and  _163
REMARK   66  A    between atoms: _163  and  _164
REMARK   67  A    between atoms: _163  and  _166
REMARK   68  A    between atoms: _169  and  _171
REMARK   69  A    between atoms: _171  and  _172
REMARK   70  A    between atoms: _171  and  _174
REMARK   71  A    between atoms: _174  and  _175
REMARK   72  A    between atoms: _175  and  _176
REMARK   73  A    between atoms: _176  and  _177
REMARK   74  A    between atoms: _177  and  _178
REMARK   75  A    between atoms: _182  and  _184
REMARK   76  A    between atoms: _184  and  _185
REMARK   77  A    between atoms: _184  and  _187
REMARK   78  A    between atoms: _187  and  _188
REMARK   79  A    between atoms: _191  and  _193
REMARK   80  A    between atoms: _193  and  _194
REMARK   81  A    between atoms: _193  and  _196
REMARK   82  A    between atoms: _199  and  _201
REMARK   83  A    between atoms: _201  and  _202
REMARK   84  A    between atoms: _201  and  _204
REMARK   85  A    between atoms: _207  and  _209
REMARK   86  A    between atoms: _209  and  _210
REMARK   87  A    between atoms: _209  and  _212
REMARK   88  A    between atoms: _212  and  _213
REMARK   89  A    between atoms: _213  and  _214
REMARK   90  A    between atoms: _214  and  _215
REMARK   91  A    between atoms: _224  and  _226
REMARK   92  A    between atoms: _226  and  _227
REMARK   93  A    between atoms: _226  and  _229
REMARK   94  A    between atoms: _232  and  _234
REMARK   95  A    between atoms: _234  and  _235
REMARK   96  A    between atoms: _234  and  _237
REMARK   97  A    between atoms: _240  and  _242
REMARK   98  A    between atoms: _242  and  _243
REMARK   99  A    between atoms: _242  and  _245
REMARK  100  A    between atoms: _245  and  _246
REMARK  101  A    between atoms: _246  and  _247
REMARK  102  A    between atoms: _249  and  _251
REMARK  103  A    between atoms: _251  and  _252
REMARK  104  A    between atoms: _251  and  _254
REMARK  105  A    between atoms: _255  and  _256
REMARK  106  A    between atoms: _259  and  _261
REMARK  107  A    between atoms: _261  and  _262
REMARK  108  A    between atoms: _261  and  _264
REMARK  109  A    between atoms: _264  and  _265
REMARK  110  A    between atoms: _268  and  _270
REMARK  111  A    between atoms: _270  and  _271
REMARK  112  A    between atoms: _270  and  _273
REMARK  113  A    between atoms: _273  and  _274
REMARK  114  A    between atoms: _274  and  _275
REMARK  115  A    between atoms: _277  and  _279
REMARK  116  A    between atoms: _279  and  _280
REMARK  117  A    between atoms: _283  and  _285
REMARK  118  A    between atoms: _285  and  _286
REMARK  119  A    between atoms: _285  and  _288
REMARK  120  A    between atoms: _288  and  _289
REMARK  121  A    between atoms: _294  and  _296
REMARK  122  A    between atoms: _296  and  _297
REMARK  123  A    between atoms: _299  and  _301
REMARK  124  A    between atoms: _301  and  _302
REMARK  125  A    between atoms: _301  and  _304
REMARK  126  A    between atoms: _304  and  _305
REMARK  127  A    between atoms: _308  and  _310
REMARK  128  A    between atoms: _310  and  _311
REMARK  129  A    between atoms: _310  and  _313
REMARK  130  A    between atoms: _313  and  _314
REMARK  131  A    between atoms: _317  and  _319
REMARK  132  A    between atoms: _319  and  _320
REMARK  133  A    between atoms: _319  and  _322
REMARK  134  A    between atoms: _322  and  _323
REMARK  135  A    between atoms: _323  and  _324
REMARK  136  A    between atoms: _324  and  _325
REMARK  137  A    between atoms: _325  and  _326
REMARK  138  A    between atoms: _330  and  _332
REMARK  139  A    between atoms: _332  and  _333
REMARK  140  A    between atoms: _332  and  _335
REMARK  141  A    between atoms: _335  and  _336
REMARK  142  A    between atoms: _338  and  _340
REMARK  143  A    between atoms: _340  and  _341
REMARK  144  A    between atoms: _340  and  _343
REMARK  145  A    between atoms: _343  and  _344
REMARK  146  A    between atoms: _349  and  _350
REMARK  147  A    between atoms: _352  and  _354
REMARK  148  A    between atoms: _354  and  _355
REMARK  149  A    between atoms: _354  and  _357
REMARK  150  A    between atoms: _357  and  _358
REMARK  151  A    between atoms: _360  and  _362
REMARK  152  A    between atoms: _362  and  _363
REMARK  153  A    between atoms: _362  and  _365
REMARK  154  A    between atoms: _365  and  _366
REMARK  155  A    between atoms: _369  and  _371
REMARK  156  A    between atoms: _371  and  _372
REMARK  157  A    between atoms: _371  and  _374
REMARK  158  A    between atoms: _374  and  _375
REMARK  159  A    between atoms: _375  and  _376
REMARK  160  A    between atoms: _379  and  _381
REMARK  161  A    between atoms: _381  and  _382
REMARK  162  A    between atoms: _381  and  _384
REMARK  163  A    between atoms: _384  and  _385
REMARK  164  A    between atoms: _390  and  _392
REMARK  165  A    between atoms: _392  and  _393
REMARK  166  A    between atoms: _392  and  _395
REMARK  167  A    between atoms: _395  and  _396
REMARK  168  A    between atoms: _402  and  _403
REMARK  169  A    between atoms: _408  and  _410
REMARK  170  A    between atoms: _410  and  _411
REMARK  171  A    between atoms: _413  and  _415
REMARK  172  A    between atoms: _415  and  _416
REMARK  173  A    between atoms: _415  and  _418
REMARK  174  A    between atoms: _418  and  _419
REMARK  175  A    between atoms: _419  and  _420
REMARK  176  A    between atoms: _420  and  _421
REMARK  177  A    between atoms: _430  and  _432
REMARK  178  A    between atoms: _432  and  _433
REMARK  179  A    between atoms: _432  and  _435
REMARK  180  A    between atoms: _435  and  _436
REMARK  181  A    between atoms: _436  and  _437
REMARK  182  A    between atoms: _437  and  _438
REMARK  183  A    between atoms: _447  and  _449
REMARK  184  A    between atoms: _449  and  _450
REMARK  185  A    between atoms: _449  and  _452
REMARK  186  A    between atoms: _452  and  _453
REMARK  187  A    between atoms: _458  and  _460
REMARK  188  A    between atoms: _460  and  _461
REMARK  189  A    between atoms: _460  and  _463
REMARK  190  A    between atoms: _465  and  _467
REMARK  191  A    between atoms: _467  and  _468
REMARK  192  A    between atoms: _467  and  _470
REMARK  193  A    between atoms: _470  and  _471
REMARK  194  A    between atoms: _471  and  _472
REMARK  195  A    between atoms: _474  and  _476
REMARK  196  A    between atoms: _476  and  _477
REMARK  197  A    between atoms: _476  and  _479
REMARK  198  A    between atoms: _482  and  _484
REMARK  199  A    between atoms: _484  and  _485
REMARK  200  A    between atoms: _484  and  _487
REMARK  201  A    between atoms: _487  and  _488
REMARK  202  A    between atoms: _488  and  _489
REMARK  203  A    between atoms: _489  and  _490
REMARK  204  A    between atoms: _490  and  _491
REMARK  205  A    between atoms: _495  and  _497
REMARK  206  A    between atoms: _497  and  _498
REMARK  207  A    between atoms: _497  and  _500
REMARK  208  A    between atoms: _500  and  _501
REMARK  209  A    between atoms: _504  and  _506
REMARK  210  A    between atoms: _506  and  _507
REMARK  211  A    between atoms: _509  and  _511
REMARK  212  A    between atoms: _511  and  _512
REMARK  213  A    between atoms: _511  and  _514
REMARK  214  A    between atoms: _514  and  _515
REMARK  215  A    between atoms: _518  and  _520
REMARK  216  A    between atoms: _520  and  _521
REMARK  217  A    between atoms: _520  and  _523
REMARK  218  A    between atoms: _523  and  _524
REMARK                            x       y       z     vdW  Elec       q    Type
REMARK                         _______ _______ _______ _____ _____    ______ ____
ROOT
ATOM      1  O   HOH     1       9.612  19.513  27.745  0.00  0.00    +0.000 OA
ENDROOT
TORSDOF 0
REMARK  Name = ../refined-set-2016/5e1s/5e1s_pocket.pdb
REMARK  218 active torsions:
REMARK  status: ('A' for Active; 'I' for Inactive)
REMARK    1  A    between atoms: _1  and  _3
REMARK    2  A    between atoms: _3  and  _4
REMARK    3  A    between atoms: _3  and  _6
REMARK    4  A    between atoms: _6  and  _7
REMARK    5  A    between atoms: _7  and  _8
REMARK    6  A    between atoms: _8  and  _9
REMARK    7  A    between atoms: _18  and  _20
REMARK    8  A    between atoms: _20  and  _21
REMARK    9  A    between atoms: _20  and  _23
REMARK   10  A    between atoms: _24  and  _25
REMARK   11  A    between atoms: _28  and  _30
REMARK   12  A    between atoms: _30  and  _31
REMARK   13  A    between atoms: _30  and  _33
REMARK   14  A    between atoms: _33  and  _34
REMARK   15  A    between atoms: _37  and  _39
REMARK   16  A    between atoms: _39  and  _40
REMARK   17  A    between atoms: _42  and  _44
REMARK   18  A    between atoms: _44  and  _45
REMARK   19  A    between atoms: _44  and  _47
REMARK   20  A    between atoms: _47  and  _48
REMARK   21  A    between atoms: _48  and  _49
REMARK   22  A    between atoms: _54  and  _56
REMARK   23  A    between atoms: _56  and  _57
REMARK   24  A    between atoms: _59  and  _61
REMARK   25  A    between atoms: _61  and  _62
REMARK   26  A    between atoms: _61  and  _64
REMARK   27  A    between atoms: _64  and  _65
REMARK   28  A    between atoms: _67  and  _69
REMARK   29  A    between atoms: _69  and  _70
REMARK   30  A    between atoms: _69  and  _72
REMARK   31  A    between atoms: _72  and  _73
REMARK   32  A    between atoms: _79  and  _81
REMARK   33  A    between atoms: _81  and  _82
REMARK   34  A    between atoms: _84  and  _86
REMARK   35  A    between atoms: _86  and  _87
REMARK   36  A    between atoms: _86  and  _89
REMARK   37  A    between atoms: _89  and  _90
REMARK   38  A    between atoms: _90  and  _91
REMARK   39  A    between atoms: _93  and  _95
REMARK   40  A    between atoms: _95  and  _96
REMARK   41  A    between atoms: _95  and  _98
REMARK   42  A    between atoms: _101  and  _103
REMARK   43  A    between atoms: _103  and  _104
REMARK   44  A    between atoms: _103  and  _106
REMARK   45  A    between atoms: _106  and  _107
REMARK   46  A    between atoms: _112  and  _113
REMARK   47  A    between atoms: _115  and  _117
REMARK   48  A    between atoms: _117  and  _118
REMARK   49  A    between atoms: _117  and  _120
REMARK   50  A    between atoms: _120  and  _121
REMARK   51  A    between atoms: _121  and  _122
REMARK   52  A    between atoms: _125  and  _127
REMARK   53  A    between atoms: _127  and  _128
REMARK   54  A    between atoms: _130  and  _132
REMARK   55  A    between atoms: _132  and  _133
REMARK   56  A    between atoms: _132  and  _135
REMARK   57  A    between atoms: _135  and  _136
REMARK   58  A    between atoms: _136  and  _137
REMARK   59  A    between atoms: _137  and  _138
REMARK   60  A    between atoms: _147  and  _149
REMARK   61  A    between atoms: _149  and  _150
REMARK   62  A    between atoms: _149  and  _152
REMARK   63  A    between atoms: _155  and  _157
REMARK   64  A    between atoms: _157  and  _158
REMARK   65  A    between atoms: _161  and  _163
REMARK   66  A    between atoms: _163  and  _164
REMARK   67  A    between atoms: _163  and  _166
REMARK   68  A    between atoms: _169  and  _171
REMARK   69  A    between atoms: _171  and  _172
REMARK   70  A    between atoms: _171  and  _174
REMARK   71  A    between atoms: _174  and  _175
REMARK   72  A    between atoms: _175  and  _176
REMARK   73  A    between atoms: _176  and  _177
REMARK   74  A    between atoms: _177  and  _178
REMARK   75  A    between atoms: _182  and  _184
REMARK   76  A    between atoms: _184  and  _185
REMARK   77  A    between atoms: _184  and  _187
REMARK   78  A    between atoms: _187  and  _188
REMARK   79  A    between atoms: _191  and  _193
REMARK   80  A    between atoms: _193  and  _194
REMARK   81  A    between atoms: _193  and  _196
REMARK   82  A    between atoms: _199  and  _201
REMARK   83  A    between atoms: _201  and  _202
REMARK   84  A    between atoms: _201  and  _204
REMARK   85  A    between atoms: _207  and  _209
REMARK   86  A    between atoms: _209  and  _210
REMARK   87  A    between atoms: _209  and  _212
REMARK   88  A    between atoms: _212  and  _213
REMARK   89  A    between atoms: _213  and  _214
REMARK   90  A    between atoms: _214  and  _215
REMARK   91  A    between atoms: _224  and  _226
REMARK   92  A    between atoms: _226  and  _227
REMARK   93  A    between atoms: _226  and  _229
REMARK   94  A    between atoms: _232  and  _234
REMARK   95  A    between atoms: _234  and  _235
REMARK   96  A    between atoms: _234  and  _237
REMARK   97  A    between atoms: _240  and  _242
REMARK   98  A    between atoms: _242  and  _243
REMARK   99  A    between atoms: _242  and  _245
REMARK  100  A    between atoms: _245  and  _246
REMARK  101  A    between atoms: _246  and  _247
REMARK  102  A    between atoms: _249  and  _251
REMARK  103  A    between atoms: _251  and  _252
REMARK  104  A    between atoms: _251  and  _254
REMARK  105  A    between atoms: _255  and  _256
REMARK  106  A    between atoms: _259  and  _261
REMARK  107  A    between atoms: _261  and  _262
REMARK  108  A    between atoms: _261  and  _264
REMARK  109  A    between atoms: _264  and  _265
REMARK  110  A    between atoms: _268  and  _270
REMARK  111  A    between atoms: _270  and  _271
REMARK  112  A    between atoms: _270  and  _273
REMARK  113  A    between atoms: _273  and  _274
REMARK  114  A    between atoms: _274  and  _275
REMARK  115  A    between atoms: _277  and  _279
REMARK  116  A    between atoms: _279  and  _280
REMARK  117  A    between atoms: _283  and  _285
REMARK  118  A    between atoms: _285  and  _286
REMARK  119  A    between atoms: _285  and  _288
REMARK  120  A    between atoms: _288  and  _289
REMARK  121  A    between atoms: _294  and  _296
REMARK  122  A    between atoms: _296  and  _297
REMARK  123  A    between atoms: _299  and  _301
REMARK  124  A    between atoms: _301  and  _302
REMARK  125  A    between atoms: _301  and  _304
REMARK  126  A    between atoms: _304  and  _305
REMARK  127  A    between atoms: _308  and  _310
REMARK  128  A    between atoms: _310  and  _311
REMARK  129  A    between atoms: _310  and  _313
REMARK  130  A    between atoms: _313  and  _314
REMARK  131  A    between atoms: _317  and  _319
REMARK  132  A    between atoms: _319  and  _320
REMARK  133  A    between atoms: _319  and  _322
REMARK  134  A    between atoms: _322  and  _323
REMARK  135  A    between atoms: _323  and  _324
REMARK  136  A    between atoms: _324  and  _325
REMARK  137  A    between atoms: _325  and  _326
REMARK  138  A    between atoms: _330  and  _332
REMARK  139  A    between atoms: _332  and  _333
REMARK  140  A    between atoms: _332  and  _335
REMARK  141  A    between atoms: _335  and  _336
REMARK  142  A    between atoms: _338  and  _340
REMARK  143  A    between atoms: _340  and  _341
REMARK  144  A    between atoms: _340  and  _343
REMARK  145  A    between atoms: _343  and  _344
REMARK  146  A    between atoms: _349  and  _350
REMARK  147  A    between atoms: _352  and  _354
REMARK  148  A    between atoms: _354  and  _355
REMARK  149  A    between atoms: _354  and  _357
REMARK  150  A    between atoms: _357  and  _358
REMARK  151  A    between atoms: _360  and  _362
REMARK  152  A    between atoms: _362  and  _363
REMARK  153  A    between atoms: _362  and  _365
REMARK  154  A    between atoms: _365  and  _366
REMARK  155  A    between atoms: _369  and  _371
REMARK  156  A    between atoms: _371  and  _372
REMARK  157  A    between atoms: _371  and  _374
REMARK  158  A    between atoms: _374  and  _375
REMARK  159  A    between atoms: _375  and  _376
REMARK  160  A    between atoms: _379  and  _381
REMARK  161  A    between atoms: _381  and  _382
REMARK  162  A    between atoms: _381  and  _384
REMARK  163  A    between atoms: _384  and  _385
REMARK  164  A    between atoms: _390  and  _392
REMARK  165  A    between atoms: _392  and  _393
REMARK  166  A    between atoms: _392  and  _395
REMARK  167  A    between atoms: _395  and  _396
REMARK  168  A    between atoms: _402  and  _403
REMARK  169  A    between atoms: _408  and  _410
REMARK  170  A    between atoms: _410  and  _411
REMARK  171  A    between atoms: _413  and  _415
REMARK  172  A    between atoms: _415  and  _416
REMARK  173  A    between atoms: _415  and  _418
REMARK  174  A    between atoms: _418  and  _419
REMARK  175  A    between atoms: _419  and  _420
REMARK  176  A    between atoms: _420  and  _421
REMARK  177  A    between atoms: _430  and  _432
REMARK  178  A    between atoms: _432  and  _433
REMARK  179  A    between atoms: _432  and  _435
REMARK  180  A    between atoms: _435  and  _436
REMARK  181  A    between atoms: _436  and  _437
REMARK  182  A    between atoms: _437  and  _438
REMARK  183  A    between atoms: _447  and  _449
REMARK  184  A    between atoms: _449  and  _450
REMARK  185  A    between atoms: _449  and  _452
REMARK  186  A    between atoms: _452  and  _453
REMARK  187  A    between atoms: _458  and  _460
REMARK  188  A    between atoms: _460  and  _461
REMARK  189  A    between atoms: _460  and  _463
REMARK  190  A    between atoms: _465  and  _467
REMARK  191  A    between atoms: _467  and  _468
REMARK  192  A    between atoms: _467  and  _470
REMARK  193  A    between atoms: _470  and  _471
REMARK  194  A    between atoms: _471  and  _472
REMARK  195  A    between atoms: _474  and  _476
REMARK  196  A    between atoms: _476  and  _477
REMARK  197  A    between atoms: _476  and  _479
REMARK  198  A    between atoms: _482  and  _484
REMARK  199  A    between atoms: _484  and  _485
REMARK  200  A    between atoms: _484  and  _487
REMARK  201  A    between atoms: _487  and  _488
REMARK  202  A    between atoms: _488  and  _489
REMARK  203  A    between atoms: _489  and  _490
REMARK  204  A    between atoms: _490  and  _491
REMARK  205  A    between atoms: _495  and  _497
REMARK  206  A    between atoms: _497  and  _498
REMARK  207  A    between atoms: _497  and  _500
REMARK  208  A    between atoms: _500  and  _501
REMARK  209  A    between atoms: _504  and  _506
REMARK  210  A    between atoms: _506  and  _507
REMARK  211  A    between atoms: _509  and  _511
REMARK  212  A    between atoms: _511  and  _512
REMARK  213  A    between atoms: _511  and  _514
REMARK  214  A    between atoms: _514  and  _515
REMARK  215  A    between atoms: _518  and  _520
REMARK  216  A    between atoms: _520  and  _521
REMARK  217  A    between atoms: _520  and  _523
REMARK  218  A    between atoms: _523  and  _524
REMARK                            x       y       z     vdW  Elec       q    Type
REMARK                         _______ _______ _______ _____ _____    ______ ____
ROOT
ATOM      1  O   HOH     1       1.491  23.824  24.681  0.00  0.00    +0.000 OA
ENDROOT
TORSDOF 0
REMARK  Name = ../refined-set-2016/5e1s/5e1s_pocket.pdb
REMARK  218 active torsions:
REMARK  status: ('A' for Active; 'I' for Inactive)
REMARK    1  A    between atoms: _1  and  _3
REMARK    2  A    between atoms: _3  and  _4
REMARK    3  A    between atoms: _3  and  _6
REMARK    4  A    between atoms: _6  and  _7
REMARK    5  A    between atoms: _7  and  _8
REMARK    6  A    between atoms: _8  and  _9
REMARK    7  A    between atoms: _18  and  _20
REMARK    8  A    between atoms: _20  and  _21
REMARK    9  A    between atoms: _20  and  _23
REMARK   10  A    between atoms: _24  and  _25
REMARK   11  A    between atoms: _28  and  _30
REMARK   12  A    between atoms: _30  and  _31
REMARK   13  A    between atoms: _30  and  _33
REMARK   14  A    between atoms: _33  and  _34
REMARK   15  A    between atoms: _37  and  _39
REMARK   16  A    between atoms: _39  and  _40
REMARK   17  A    between atoms: _42  and  _44
REMARK   18  A    between atoms: _44  and  _45
REMARK   19  A    between atoms: _44  and  _47
REMARK   20  A    between atoms: _47  and  _48
REMARK   21  A    between atoms: _48  and  _49
REMARK   22  A    between atoms: _54  and  _56
REMARK   23  A    between atoms: _56  and  _57
REMARK   24  A    between atoms: _59  and  _61
REMARK   25  A    between atoms: _61  and  _62
REMARK   26  A    between atoms: _61  and  _64
REMARK   27  A    between atoms: _64  and  _65
REMARK   28  A    between atoms: _67  and  _69
REMARK   29  A    between atoms: _69  and  _70
REMARK   30  A    between atoms: _69  and  _72
REMARK   31  A    between atoms: _72  and  _73
REMARK   32  A    between atoms: _79  and  _81
REMARK   33  A    between atoms: _81  and  _82
REMARK   34  A    between atoms: _84  and  _86
REMARK   35  A    between atoms: _86  and  _87
REMARK   36  A    between atoms: _86  and  _89
REMARK   37  A    between atoms: _89  and  _90
REMARK   38  A    between atoms: _90  and  _91
REMARK   39  A    between atoms: _93  and  _95
REMARK   40  A    between atoms: _95  and  _96
REMARK   41  A    between atoms: _95  and  _98
REMARK   42  A    between atoms: _101  and  _103
REMARK   43  A    between atoms: _103  and  _104
REMARK   44  A    between atoms: _103  and  _106
REMARK   45  A    between atoms: _106  and  _107
REMARK   46  A    between atoms: _112  and  _113
REMARK   47  A    between atoms: _115  and  _117
REMARK   48  A    between atoms: _117  and  _118
REMARK   49  A    between atoms: _117  and  _120
REMARK   50  A    between atoms: _120  and  _121
REMARK   51  A    between atoms: _121  and  _122
REMARK   52  A    between atoms: _125  and  _127
REMARK   53  A    between atoms: _127  and  _128
REMARK   54  A    between atoms: _130  and  _132
REMARK   55  A    between atoms: _132  and  _133
REMARK   56  A    between atoms: _132  and  _135
REMARK   57  A    between atoms: _135  and  _136
REMARK   58  A    between atoms: _136  and  _137
REMARK   59  A    between atoms: _137  and  _138
REMARK   60  A    between atoms: _147  and  _149
REMARK   61  A    between atoms: _149  and  _150
REMARK   62  A    between atoms: _149  and  _152
REMARK   63  A    between atoms: _155  and  _157
REMARK   64  A    between atoms: _157  and  _158
REMARK   65  A    between atoms: _161  and  _163
REMARK   66  A    between atoms: _163  and  _164
REMARK   67  A    between atoms: _163  and  _166
REMARK   68  A    between atoms: _169  and  _171
REMARK   69  A    between atoms: _171  and  _172
REMARK   70  A    between atoms: _171  and  _174
REMARK   71  A    between atoms: _174  and  _175
REMARK   72  A    between atoms: _175  and  _176
REMARK   73  A    between atoms: _176  and  _177
REMARK   74  A    between atoms: _177  and  _178
REMARK   75  A    between atoms: _182  and  _184
REMARK   76  A    between atoms: _184  and  _185
REMARK   77  A    between atoms: _184  and  _187
REMARK   78  A    between atoms: _187  and  _188
REMARK   79  A    between atoms: _191  and  _193
REMARK   80  A    between atoms: _193  and  _194
REMARK   81  A    between atoms: _193  and  _196
REMARK   82  A    between atoms: _199  and  _201
REMARK   83  A    between atoms: _201  and  _202
REMARK   84  A    between atoms: _201  and  _204
REMARK   85  A    between atoms: _207  and  _209
REMARK   86  A    between atoms: _209  and  _210
REMARK   87  A    between atoms: _209  and  _212
REMARK   88  A    between atoms: _212  and  _213
REMARK   89  A    between atoms: _213  and  _214
REMARK   90  A    between atoms: _214  and  _215
REMARK   91  A    between atoms: _224  and  _226
REMARK   92  A    between atoms: _226  and  _227
REMARK   93  A    between atoms: _226  and  _229
REMARK   94  A    between atoms: _232  and  _234
REMARK   95  A    between atoms: _234  and  _235
REMARK   96  A    between atoms: _234  and  _237
REMARK   97  A    between atoms: _240  and  _242
REMARK   98  A    between atoms: _242  and  _243
REMARK   99  A    between atoms: _242  and  _245
REMARK  100  A    between atoms: _245  and  _246
REMARK  101  A    between atoms: _246  and  _247
REMARK  102  A    between atoms: _249  and  _251
REMARK  103  A    between atoms: _251  and  _252
REMARK  104  A    between atoms: _251  and  _254
REMARK  105  A    between atoms: _255  and  _256
REMARK  106  A    between atoms: _259  and  _261
REMARK  107  A    between atoms: _261  and  _262
REMARK  108  A    between atoms: _261  and  _264
REMARK  109  A    between atoms: _264  and  _265
REMARK  110  A    between atoms: _268  and  _270
REMARK  111  A    between atoms: _270  and  _271
REMARK  112  A    between atoms: _270  and  _273
REMARK  113  A    between atoms: _273  and  _274
REMARK  114  A    between atoms: _274  and  _275
REMARK  115  A    between atoms: _277  and  _279
REMARK  116  A    between atoms: _279  and  _280
REMARK  117  A    between atoms: _283  and  _285
REMARK  118  A    between atoms: _285  and  _286
REMARK  119  A    between atoms: _285  and  _288
REMARK  120  A    between atoms: _288  and  _289
REMARK  121  A    between atoms: _294  and  _296
REMARK  122  A    between atoms: _296  and  _297
REMARK  123  A    between atoms: _299  and  _301
REMARK  124  A    between atoms: _301  and  _302
REMARK  125  A    between atoms: _301  and  _304
REMARK  126  A    between atoms: _304  and  _305
REMARK  127  A    between atoms: _308  and  _310
REMARK  128  A    between atoms: _310  and  _311
REMARK  129  A    between atoms: _310  and  _313
REMARK  130  A    between atoms: _313  and  _314
REMARK  131  A    between atoms: _317  and  _319
REMARK  132  A    between atoms: _319  and  _320
REMARK  133  A    between atoms: _319  and  _322
REMARK  134  A    between atoms: _322  and  _323
REMARK  135  A    between atoms: _323  and  _324
REMARK  136  A    between atoms: _324  and  _325
REMARK  137  A    between atoms: _325  and  _326
REMARK  138  A    between atoms: _330  and  _332
REMARK  139  A    between atoms: _332  and  _333
REMARK  140  A    between atoms: _332  and  _335
REMARK  141  A    between atoms: _335  and  _336
REMARK  142  A    between atoms: _338  and  _340
REMARK  143  A    between atoms: _340  and  _341
REMARK  144  A    between atoms: _340  and  _343
REMARK  145  A    between atoms: _343  and  _344
REMARK  146  A    between atoms: _349  and  _350
REMARK  147  A    between atoms: _352  and  _354
REMARK  148  A    between atoms: _354  and  _355
REMARK  149  A    between atoms: _354  and  _357
REMARK  150  A    between atoms: _357  and  _358
REMARK  151  A    between atoms: _360  and  _362
REMARK  152  A    between atoms: _362  and  _363
REMARK  153  A    between atoms: _362  and  _365
REMARK  154  A    between atoms: _365  and  _366
REMARK  155  A    between atoms: _369  and  _371
REMARK  156  A    between atoms: _371  and  _372
REMARK  157  A    between atoms: _371  and  _374
REMARK  158  A    between atoms: _374  and  _375
REMARK  159  A    between atoms: _375  and  _376
REMARK  160  A    between atoms: _379  and  _381
REMARK  161  A    between atoms: _381  and  _382
REMARK  162  A    between atoms: _381  and  _384
REMARK  163  A    between atoms: _384  and  _385
REMARK  164  A    between atoms: _390  and  _392
REMARK  165  A    between atoms: _392  and  _393
REMARK  166  A    between atoms: _392  and  _395
REMARK  167  A    between atoms: _395  and  _396
REMARK  168  A    between atoms: _402  and  _403
REMARK  169  A    between atoms: _408  and  _410
REMARK  170  A    between atoms: _410  and  _411
REMARK  171  A    between atoms: _413  and  _415
REMARK  172  A    between atoms: _415  and  _416
REMARK  173  A    between atoms: _415  and  _418
REMARK  174  A    between atoms: _418  and  _419
REMARK  175  A    between atoms: _419  and  _420
REMARK  176  A    between atoms: _420  and  _421
REMARK  177  A    between atoms: _430  and  _432
REMARK  178  A    between atoms: _432  and  _433
REMARK  179  A    between atoms: _432  and  _435
REMARK  180  A    between atoms: _435  and  _436
REMARK  181  A    between atoms: _436  and  _437
REMARK  182  A    between atoms: _437  and  _438
REMARK  183  A    between atoms: _447  and  _449
REMARK  184  A    between atoms: _449  and  _450
REMARK  185  A    between atoms: _449  and  _452
REMARK  186  A    between atoms: _452  and  _453
REMARK  187  A    between atoms: _458  and  _460
REMARK  188  A    between atoms: _460  and  _461
REMARK  189  A    between atoms: _460  and  _463
REMARK  190  A    between atoms: _465  and  _467
REMARK  191  A    between atoms: _467  and  _468
REMARK  192  A    between atoms: _467  and  _470
REMARK  193  A    between atoms: _470  and  _471
REMARK  194  A    between atoms: _471  and  _472
REMARK  195  A    between atoms: _474  and  _476
REMARK  196  A    between atoms: _476  and  _477
REMARK  197  A    between atoms: _476  and  _479
REMARK  198  A    between atoms: _482  and  _484
REMARK  199  A    between atoms: _484  and  _485
REMARK  200  A    between atoms: _484  and  _487
REMARK  201  A    between atoms: _487  and  _488
REMARK  202  A    between atoms: _488  and  _489
REMARK  203  A    between atoms: _489  and  _490
REMARK  204  A    between atoms: _490  and  _491
REMARK  205  A    between atoms: _495  and  _497
REMARK  206  A    between atoms: _497  and  _498
REMARK  207  A    between atoms: _497  and  _500
REMARK  208  A    between atoms: _500  and  _501
REMARK  209  A    between atoms: _504  and  _506
REMARK  210  A    between atoms: _506  and  _507
REMARK  211  A    between atoms: _509  and  _511
REMARK  212  A    between atoms: _511  and  _512
REMARK  213  A    between atoms: _511  and  _514
REMARK  214  A    between atoms: _514  and  _515
REMARK  215  A    between atoms: _518  and  _520
REMARK  216  A    between atoms: _520  and  _521
REMARK  217  A    between atoms: _520  and  _523
REMARK  218  A    between atoms: _523  and  _524
REMARK                            x       y       z     vdW  Elec       q    Type
REMARK                         _______ _______ _______ _____ _____    ______ ____
ROOT
ATOM      1  O   HOH     1       4.438  19.307  24.745  0.00  0.00    +0.000 OA
ENDROOT
TORSDOF 0
REMARK  Name = ../refined-set-2016/5e1s/5e1s_pocket.pdb
REMARK  218 active torsions:
REMARK  status: ('A' for Active; 'I' for Inactive)
REMARK    1  A    between atoms: _1  and  _3
REMARK    2  A    between atoms: _3  and  _4
REMARK    3  A    between atoms: _3  and  _6
REMARK    4  A    between atoms: _6  and  _7
REMARK    5  A    between atoms: _7  and  _8
REMARK    6  A    between atoms: _8  and  _9
REMARK    7  A    between atoms: _18  and  _20
REMARK    8  A    between atoms: _20  and  _21
REMARK    9  A    between atoms: _20  and  _23
REMARK   10  A    between atoms: _24  and  _25
REMARK   11  A    between atoms: _28  and  _30
REMARK   12  A    between atoms: _30  and  _31
REMARK   13  A    between atoms: _30  and  _33
REMARK   14  A    between atoms: _33  and  _34
REMARK   15  A    between atoms: _37  and  _39
REMARK   16  A    between atoms: _39  and  _40
REMARK   17  A    between atoms: _42  and  _44
REMARK   18  A    between atoms: _44  and  _45
REMARK   19  A    between atoms: _44  and  _47
REMARK   20  A    between atoms: _47  and  _48
REMARK   21  A    between atoms: _48  and  _49
REMARK   22  A    between atoms: _54  and  _56
REMARK   23  A    between atoms: _56  and  _57
REMARK   24  A    between atoms: _59  and  _61
REMARK   25  A    between atoms: _61  and  _62
REMARK   26  A    between atoms: _61  and  _64
REMARK   27  A    between atoms: _64  and  _65
REMARK   28  A    between atoms: _67  and  _69
REMARK   29  A    between atoms: _69  and  _70
REMARK   30  A    between atoms: _69  and  _72
REMARK   31  A    between atoms: _72  and  _73
REMARK   32  A    between atoms: _79  and  _81
REMARK   33  A    between atoms: _81  and  _82
REMARK   34  A    between atoms: _84  and  _86
REMARK   35  A    between atoms: _86  and  _87
REMARK   36  A    between atoms: _86  and  _89
REMARK   37  A    between atoms: _89  and  _90
REMARK   38  A    between atoms: _90  and  _91
REMARK   39  A    between atoms: _93  and  _95
REMARK   40  A    between atoms: _95  and  _96
REMARK   41  A    between atoms: _95  and  _98
REMARK   42  A    between atoms: _101  and  _103
REMARK   43  A    between atoms: _103  and  _104
REMARK   44  A    between atoms: _103  and  _106
REMARK   45  A    between atoms: _106  and  _107
REMARK   46  A    between atoms: _112  and  _113
REMARK   47  A    between atoms: _115  and  _117
REMARK   48  A    between atoms: _117  and  _118
REMARK   49  A    between atoms: _117  and  _120
REMARK   50  A    between atoms: _120  and  _121
REMARK   51  A    between atoms: _121  and  _122
REMARK   52  A    between atoms: _125  and  _127
REMARK   53  A    between atoms: _127  and  _128
REMARK   54  A    between atoms: _130  and  _132
REMARK   55  A    between atoms: _132  and  _133
REMARK   56  A    between atoms: _132  and  _135
REMARK   57  A    between atoms: _135  and  _136
REMARK   58  A    between atoms: _136  and  _137
REMARK   59  A    between atoms: _137  and  _138
REMARK   60  A    between atoms: _147  and  _149
REMARK   61  A    between atoms: _149  and  _150
REMARK   62  A    between atoms: _149  and  _152
REMARK   63  A    between atoms: _155  and  _157
REMARK   64  A    between atoms: _157  and  _158
REMARK   65  A    between atoms: _161  and  _163
REMARK   66  A    between atoms: _163  and  _164
REMARK   67  A    between atoms: _163  and  _166
REMARK   68  A    between atoms: _169  and  _171
REMARK   69  A    between atoms: _171  and  _172
REMARK   70  A    between atoms: _171  and  _174
REMARK   71  A    between atoms: _174  and  _175
REMARK   72  A    between atoms: _175  and  _176
REMARK   73  A    between atoms: _176  and  _177
REMARK   74  A    between atoms: _177  and  _178
REMARK   75  A    between atoms: _182  and  _184
REMARK   76  A    between atoms: _184  and  _185
REMARK   77  A    between atoms: _184  and  _187
REMARK   78  A    between atoms: _187  and  _188
REMARK   79  A    between atoms: _191  and  _193
REMARK   80  A    between atoms: _193  and  _194
REMARK   81  A    between atoms: _193  and  _196
REMARK   82  A    between atoms: _199  and  _201
REMARK   83  A    between atoms: _201  and  _202
REMARK   84  A    between atoms: _201  and  _204
REMARK   85  A    between atoms: _207  and  _209
REMARK   86  A    between atoms: _209  and  _210
REMARK   87  A    between atoms: _209  and  _212
REMARK   88  A    between atoms: _212  and  _213
REMARK   89  A    between atoms: _213  and  _214
REMARK   90  A    between atoms: _214  and  _215
REMARK   91  A    between atoms: _224  and  _226
REMARK   92  A    between atoms: _226  and  _227
REMARK   93  A    between atoms: _226  and  _229
REMARK   94  A    between atoms: _232  and  _234
REMARK   95  A    between atoms: _234  and  _235
REMARK   96  A    between atoms: _234  and  _237
REMARK   97  A    between atoms: _240  and  _242
REMARK   98  A    between atoms: _242  and  _243
REMARK   99  A    between atoms: _242  and  _245
REMARK  100  A    between atoms: _245  and  _246
REMARK  101  A    between atoms: _246  and  _247
REMARK  102  A    between atoms: _249  and  _251
REMARK  103  A    between atoms: _251  and  _252
REMARK  104  A    between atoms: _251  and  _254
REMARK  105  A    between atoms: _255  and  _256
REMARK  106  A    between atoms: _259  and  _261
REMARK  107  A    between atoms: _261  and  _262
REMARK  108  A    between atoms: _261  and  _264
REMARK  109  A    between atoms: _264  and  _265
REMARK  110  A    between atoms: _268  and  _270
REMARK  111  A    between atoms: _270  and  _271
REMARK  112  A    between atoms: _270  and  _273
REMARK  113  A    between atoms: _273  and  _274
REMARK  114  A    between atoms: _274  and  _275
REMARK  115  A    between atoms: _277  and  _279
REMARK  116  A    between atoms: _279  and  _280
REMARK  117  A    between atoms: _283  and  _285
REMARK  118  A    between atoms: _285  and  _286
REMARK  119  A    between atoms: _285  and  _288
REMARK  120  A    between atoms: _288  and  _289
REMARK  121  A    between atoms: _294  and  _296
REMARK  122  A    between atoms: _296  and  _297
REMARK  123  A    between atoms: _299  and  _301
REMARK  124  A    between atoms: _301  and  _302
REMARK  125  A    between atoms: _301  and  _304
REMARK  126  A    between atoms: _304  and  _305
REMARK  127  A    between atoms: _308  and  _310
REMARK  128  A    between atoms: _310  and  _311
REMARK  129  A    between atoms: _310  and  _313
REMARK  130  A    between atoms: _313  and  _314
REMARK  131  A    between atoms: _317  and  _319
REMARK  132  A    between atoms: _319  and  _320
REMARK  133  A    between atoms: _319  and  _322
REMARK  134  A    between atoms: _322  and  _323
REMARK  135  A    between atoms: _323  and  _324
REMARK  136  A    between atoms: _324  and  _325
REMARK  137  A    between atoms: _325  and  _326
REMARK  138  A    between atoms: _330  and  _332
REMARK  139  A    between atoms: _332  and  _333
REMARK  140  A    between atoms: _332  and  _335
REMARK  141  A    between atoms: _335  and  _336
REMARK  142  A    between atoms: _338  and  _340
REMARK  143  A    between atoms: _340  and  _341
REMARK  144  A    between atoms: _340  and  _343
REMARK  145  A    between atoms: _343  and  _344
REMARK  146  A    between atoms: _349  and  _350
REMARK  147  A    between atoms: _352  and  _354
REMARK  148  A    between atoms: _354  and  _355
REMARK  149  A    between atoms: _354  and  _357
REMARK  150  A    between atoms: _357  and  _358
REMARK  151  A    between atoms: _360  and  _362
REMARK  152  A    between atoms: _362  and  _363
REMARK  153  A    between atoms: _362  and  _365
REMARK  154  A    between atoms: _365  and  _366
REMARK  155  A    between atoms: _369  and  _371
REMARK  156  A    between atoms: _371  and  _372
REMARK  157  A    between atoms: _371  and  _374
REMARK  158  A    between atoms: _374  and  _375
REMARK  159  A    between atoms: _375  and  _376
REMARK  160  A    between atoms: _379  and  _381
REMARK  161  A    between atoms: _381  and  _382
REMARK  162  A    between atoms: _381  and  _384
REMARK  163  A    between atoms: _384  and  _385
REMARK  164  A    between atoms: _390  and  _392
REMARK  165  A    between atoms: _392  and  _393
REMARK  166  A    between atoms: _392  and  _395
REMARK  167  A    between atoms: _395  and  _396
REMARK  168  A    between atoms: _402  and  _403
REMARK  169  A    between atoms: _408  and  _410
REMARK  170  A    between atoms: _410  and  _411
REMARK  171  A    between atoms: _413  and  _415
REMARK  172  A    between atoms: _415  and  _416
REMARK  173  A    between atoms: _415  and  _418
REMARK  174  A    between atoms: _418  and  _419
REMARK  175  A    between atoms: _419  and  _420
REMARK  176  A    between atoms: _420  and  _421
REMARK  177  A    between atoms: _430  and  _432
REMARK  178  A    between atoms: _432  and  _433
REMARK  179  A    between atoms: _432  and  _435
REMARK  180  A    between atoms: _435  and  _436
REMARK  181  A    between atoms: _436  and  _437
REMARK  182  A    between atoms: _437  and  _438
REMARK  183  A    between atoms: _447  and  _449
REMARK  184  A    between atoms: _449  and  _450
REMARK  185  A    between atoms: _449  and  _452
REMARK  186  A    between atoms: _452  and  _453
REMARK  187  A    between atoms: _458  and  _460
REMARK  188  A    between atoms: _460  and  _461
REMARK  189  A    between atoms: _460  and  _463
REMARK  190  A    between atoms: _465  and  _467
REMARK  191  A    between atoms: _467  and  _468
REMARK  192  A    between atoms: _467  and  _470
REMARK  193  A    between atoms: _470  and  _471
REMARK  194  A    between atoms: _471  and  _472
REMARK  195  A    between atoms: _474  and  _476
REMARK  196  A    between atoms: _476  and  _477
REMARK  197  A    between atoms: _476  and  _479
REMARK  198  A    between atoms: _482  and  _484
REMARK  199  A    between atoms: _484  and  _485
REMARK  200  A    between atoms: _484  and  _487
REMARK  201  A    between atoms: _487  and  _488
REMARK  202  A    between atoms: _488  and  _489
REMARK  203  A    between atoms: _489  and  _490
REMARK  204  A    between atoms: _490  and  _491
REMARK  205  A    between atoms: _495  and  _497
REMARK  206  A    between atoms: _497  and  _498
REMARK  207  A    between atoms: _497  and  _500
REMARK  208  A    between atoms: _500  and  _501
REMARK  209  A    between atoms: _504  and  _506
REMARK  210  A    between atoms: _506  and  _507
REMARK  211  A    between atoms: _509  and  _511
REMARK  212  A    between atoms: _511  and  _512
REMARK  213  A    between atoms: _511  and  _514
REMARK  214  A    between atoms: _514  and  _515
REMARK  215  A    between atoms: _518  and  _520
REMARK  216  A    between atoms: _520  and  _521
REMARK  217  A    between atoms: _520  and  _523
REMARK  218  A    between atoms: _523  and  _524
REMARK                            x       y       z     vdW  Elec       q    Type
REMARK                         _______ _______ _______ _____ _____    ______ ____
ROOT
ATOM      1  O   HOH     1      11.004  21.539  23.703  0.00  0.00    +0.000 OA
ENDROOT
TORSDOF 0
REMARK  Name = ../refined-set-2016/5e1s/5e1s_pocket.pdb
REMARK  218 active torsions:
REMARK  status: ('A' for Active; 'I' for Inactive)
REMARK    1  A    between atoms: _1  and  _3
REMARK    2  A    between atoms: _3  and  _4
REMARK    3  A    between atoms: _3  and  _6
REMARK    4  A    between atoms: _6  and  _7
REMARK    5  A    between atoms: _7  and  _8
REMARK    6  A    between atoms: _8  and  _9
REMARK    7  A    between atoms: _18  and  _20
REMARK    8  A    between atoms: _20  and  _21
REMARK    9  A    between atoms: _20  and  _23
REMARK   10  A    between atoms: _24  and  _25
REMARK   11  A    between atoms: _28  and  _30
REMARK   12  A    between atoms: _30  and  _31
REMARK   13  A    between atoms: _30  and  _33
REMARK   14  A    between atoms: _33  and  _34
REMARK   15  A    between atoms: _37  and  _39
REMARK   16  A    between atoms: _39  and  _40
REMARK   17  A    between atoms: _42  and  _44
REMARK   18  A    between atoms: _44  and  _45
REMARK   19  A    between atoms: _44  and  _47
REMARK   20  A    between atoms: _47  and  _48
REMARK   21  A    between atoms: _48  and  _49
REMARK   22  A    between atoms: _54  and  _56
REMARK   23  A    between atoms: _56  and  _57
REMARK   24  A    between atoms: _59  and  _61
REMARK   25  A    between atoms: _61  and  _62
REMARK   26  A    between atoms: _61  and  _64
REMARK   27  A    between atoms: _64  and  _65
REMARK   28  A    between atoms: _67  and  _69
REMARK   29  A    between atoms: _69  and  _70
REMARK   30  A    between atoms: _69  and  _72
REMARK   31  A    between atoms: _72  and  _73
REMARK   32  A    between atoms: _79  and  _81
REMARK   33  A    between atoms: _81  and  _82
REMARK   34  A    between atoms: _84  and  _86
REMARK   35  A    between atoms: _86  and  _87
REMARK   36  A    between atoms: _86  and  _89
REMARK   37  A    between atoms: _89  and  _90
REMARK   38  A    between atoms: _90  and  _91
REMARK   39  A    between atoms: _93  and  _95
REMARK   40  A    between atoms: _95  and  _96
REMARK   41  A    between atoms: _95  and  _98
REMARK   42  A    between atoms: _101  and  _103
REMARK   43  A    between atoms: _103  and  _104
REMARK   44  A    between atoms: _103  and  _106
REMARK   45  A    between atoms: _106  and  _107
REMARK   46  A    between atoms: _112  and  _113
REMARK   47  A    between atoms: _115  and  _117
REMARK   48  A    between atoms: _117  and  _118
REMARK   49  A    between atoms: _117  and  _120
REMARK   50  A    between atoms: _120  and  _121
REMARK   51  A    between atoms: _121  and  _122
REMARK   52  A    between atoms: _125  and  _127
REMARK   53  A    between atoms: _127  and  _128
REMARK   54  A    between atoms: _130  and  _132
REMARK   55  A    between atoms: _132  and  _133
REMARK   56  A    between atoms: _132  and  _135
REMARK   57  A    between atoms: _135  and  _136
REMARK   58  A    between atoms: _136  and  _137
REMARK   59  A    between atoms: _137  and  _138
REMARK   60  A    between atoms: _147  and  _149
REMARK   61  A    between atoms: _149  and  _150
REMARK   62  A    between atoms: _149  and  _152
REMARK   63  A    between atoms: _155  and  _157
REMARK   64  A    between atoms: _157  and  _158
REMARK   65  A    between atoms: _161  and  _163
REMARK   66  A    between atoms: _163  and  _164
REMARK   67  A    between atoms: _163  and  _166
REMARK   68  A    between atoms: _169  and  _171
REMARK   69  A    between atoms: _171  and  _172
REMARK   70  A    between atoms: _171  and  _174
REMARK   71  A    between atoms: _174  and  _175
REMARK   72  A    between atoms: _175  and  _176
REMARK   73  A    between atoms: _176  and  _177
REMARK   74  A    between atoms: _177  and  _178
REMARK   75  A    between atoms: _182  and  _184
REMARK   76  A    between atoms: _184  and  _185
REMARK   77  A    between atoms: _184  and  _187
REMARK   78  A    between atoms: _187  and  _188
REMARK   79  A    between atoms: _191  and  _193
REMARK   80  A    between atoms: _193  and  _194
REMARK   81  A    between atoms: _193  and  _196
REMARK   82  A    between atoms: _199  and  _201
REMARK   83  A    between atoms: _201  and  _202
REMARK   84  A    between atoms: _201  and  _204
REMARK   85  A    between atoms: _207  and  _209
REMARK   86  A    between atoms: _209  and  _210
REMARK   87  A    between atoms: _209  and  _212
REMARK   88  A    between atoms: _212  and  _213
REMARK   89  A    between atoms: _213  and  _214
REMARK   90  A    between atoms: _214  and  _215
REMARK   91  A    between atoms: _224  and  _226
REMARK   92  A    between atoms: _226  and  _227
REMARK   93  A    between atoms: _226  and  _229
REMARK   94  A    between atoms: _232  and  _234
REMARK   95  A    between atoms: _234  and  _235
REMARK   96  A    between atoms: _234  and  _237
REMARK   97  A    between atoms: _240  and  _242
REMARK   98  A    between atoms: _242  and  _243
REMARK   99  A    between atoms: _242  and  _245
REMARK  100  A    between atoms: _245  and  _246
REMARK  101  A    between atoms: _246  and  _247
REMARK  102  A    between atoms: _249  and  _251
REMARK  103  A    between atoms: _251  and  _252
REMARK  104  A    between atoms: _251  and  _254
REMARK  105  A    between atoms: _255  and  _256
REMARK  106  A    between atoms: _259  and  _261
REMARK  107  A    between atoms: _261  and  _262
REMARK  108  A    between atoms: _261  and  _264
REMARK  109  A    between atoms: _264  and  _265
REMARK  110  A    between atoms: _268  and  _270
REMARK  111  A    between atoms: _270  and  _271
REMARK  112  A    between atoms: _270  and  _273
REMARK  113  A    between atoms: _273  and  _274
REMARK  114  A    between atoms: _274  and  _275
REMARK  115  A    between atoms: _277  and  _279
REMARK  116  A    between atoms: _279  and  _280
REMARK  117  A    between atoms: _283  and  _285
REMARK  118  A    between atoms: _285  and  _286
REMARK  119  A    between atoms: _285  and  _288
REMARK  120  A    between atoms: _288  and  _289
REMARK  121  A    between atoms: _294  and  _296
REMARK  122  A    between atoms: _296  and  _297
REMARK  123  A    between atoms: _299  and  _301
REMARK  124  A    between atoms: _301  and  _302
REMARK  125  A    between atoms: _301  and  _304
REMARK  126  A    between atoms: _304  and  _305
REMARK  127  A    between atoms: _308  and  _310
REMARK  128  A    between atoms: _310  and  _311
REMARK  129  A    between atoms: _310  and  _313
REMARK  130  A    between atoms: _313  and  _314
REMARK  131  A    between atoms: _317  and  _319
REMARK  132  A    between atoms: _319  and  _320
REMARK  133  A    between atoms: _319  and  _322
REMARK  134  A    between atoms: _322  and  _323
REMARK  135  A    between atoms: _323  and  _324
REMARK  136  A    between atoms: _324  and  _325
REMARK  137  A    between atoms: _325  and  _326
REMARK  138  A    between atoms: _330  and  _332
REMARK  139  A    between atoms: _332  and  _333
REMARK  140  A    between atoms: _332  and  _335
REMARK  141  A    between atoms: _335  and  _336
REMARK  142  A    between atoms: _338  and  _340
REMARK  143  A    between atoms: _340  and  _341
REMARK  144  A    between atoms: _340  and  _343
REMARK  145  A    between atoms: _343  and  _344
REMARK  146  A    between atoms: _349  and  _350
REMARK  147  A    between atoms: _352  and  _354
REMARK  148  A    between atoms: _354  and  _355
REMARK  149  A    between atoms: _354  and  _357
REMARK  150  A    between atoms: _357  and  _358
REMARK  151  A    between atoms: _360  and  _362
REMARK  152  A    between atoms: _362  and  _363
REMARK  153  A    between atoms: _362  and  _365
REMARK  154  A    between atoms: _365  and  _366
REMARK  155  A    between atoms: _369  and  _371
REMARK  156  A    between atoms: _371  and  _372
REMARK  157  A    between atoms: _371  and  _374
REMARK  158  A    between atoms: _374  and  _375
REMARK  159  A    between atoms: _375  and  _376
REMARK  160  A    between atoms: _379  and  _381
REMARK  161  A    between atoms: _381  and  _382
REMARK  162  A    between atoms: _381  and  _384
REMARK  163  A    between atoms: _384  and  _385
REMARK  164  A    between atoms: _390  and  _392
REMARK  165  A    between atoms: _392  and  _393
REMARK  166  A    between atoms: _392  and  _395
REMARK  167  A    between atoms: _395  and  _396
REMARK  168  A    between atoms: _402  and  _403
REMARK  169  A    between atoms: _408  and  _410
REMARK  170  A    between atoms: _410  and  _411
REMARK  171  A    between atoms: _413  and  _415
REMARK  172  A    between atoms: _415  and  _416
REMARK  173  A    between atoms: _415  and  _418
REMARK  174  A    between atoms: _418  and  _419
REMARK  175  A    between atoms: _419  and  _420
REMARK  176  A    between atoms: _420  and  _421
REMARK  177  A    between atoms: _430  and  _432
REMARK  178  A    between atoms: _432  and  _433
REMARK  179  A    between atoms: _432  and  _435
REMARK  180  A    between atoms: _435  and  _436
REMARK  181  A    between atoms: _436  and  _437
REMARK  182  A    between atoms: _437  and  _438
REMARK  183  A    between atoms: _447  and  _449
REMARK  184  A    between atoms: _449  and  _450
REMARK  185  A    between atoms: _449  and  _452
REMARK  186  A    between atoms: _452  and  _453
REMARK  187  A    between atoms: _458  and  _460
REMARK  188  A    between atoms: _460  and  _461
REMARK  189  A    between atoms: _460  and  _463
REMARK  190  A    between atoms: _465  and  _467
REMARK  191  A    between atoms: _467  and  _468
REMARK  192  A    between atoms: _467  and  _470
REMARK  193  A    between atoms: _470  and  _471
REMARK  194  A    between atoms: _471  and  _472
REMARK  195  A    between atoms: _474  and  _476
REMARK  196  A    between atoms: _476  and  _477
REMARK  197  A    between atoms: _476  and  _479
REMARK  198  A    between atoms: _482  and  _484
REMARK  199  A    between atoms: _484  and  _485
REMARK  200  A    between atoms: _484  and  _487
REMARK  201  A    between atoms: _487  and  _488
REMARK  202  A    between atoms: _488  and  _489
REMARK  203  A    between atoms: _489  and  _490
REMARK  204  A    between atoms: _490  and  _491
REMARK  205  A    between atoms: _495  and  _497
REMARK  206  A    between atoms: _497  and  _498
REMARK  207  A    between atoms: _497  and  _500
REMARK  208  A    between atoms: _500  and  _501
REMARK  209  A    between atoms: _504  and  _506
REMARK  210  A    between atoms: _506  and  _507
REMARK  211  A    between atoms: _509  and  _511
REMARK  212  A    between atoms: _511  and  _512
REMARK  213  A    between atoms: _511  and  _514
REMARK  214  A    between atoms: _514  and  _515
REMARK  215  A    between atoms: _518  and  _520
REMARK  216  A    between atoms: _520  and  _521
REMARK  217  A    between atoms: _520  and  _523
REMARK  218  A    between atoms: _523  and  _524
REMARK                            x       y       z     vdW  Elec       q    Type
REMARK                         _______ _______ _______ _____ _____    ______ ____
ROOT
ATOM      1  O   HOH     1      12.118  28.554  15.626  0.00  0.00    +0.000 OA
ENDROOT
TORSDOF 0
REMARK  Name = ../refined-set-2016/5e1s/5e1s_pocket.pdb
REMARK  218 active torsions:
REMARK  status: ('A' for Active; 'I' for Inactive)
REMARK    1  A    between atoms: _1  and  _3
REMARK    2  A    between atoms: _3  and  _4
REMARK    3  A    between atoms: _3  and  _6
REMARK    4  A    between atoms: _6  and  _7
REMARK    5  A    between atoms: _7  and  _8
REMARK    6  A    between atoms: _8  and  _9
REMARK    7  A    between atoms: _18  and  _20
REMARK    8  A    between atoms: _20  and  _21
REMARK    9  A    between atoms: _20  and  _23
REMARK   10  A    between atoms: _24  and  _25
REMARK   11  A    between atoms: _28  and  _30
REMARK   12  A    between atoms: _30  and  _31
REMARK   13  A    between atoms: _30  and  _33
REMARK   14  A    between atoms: _33  and  _34
REMARK   15  A    between atoms: _37  and  _39
REMARK   16  A    between atoms: _39  and  _40
REMARK   17  A    between atoms: _42  and  _44
REMARK   18  A    between atoms: _44  and  _45
REMARK   19  A    between atoms: _44  and  _47
REMARK   20  A    between atoms: _47  and  _48
REMARK   21  A    between atoms: _48  and  _49
REMARK   22  A    between atoms: _54  and  _56
REMARK   23  A    between atoms: _56  and  _57
REMARK   24  A    between atoms: _59  and  _61
REMARK   25  A    between atoms: _61  and  _62
REMARK   26  A    between atoms: _61  and  _64
REMARK   27  A    between atoms: _64  and  _65
REMARK   28  A    between atoms: _67  and  _69
REMARK   29  A    between atoms: _69  and  _70
REMARK   30  A    between atoms: _69  and  _72
REMARK   31  A    between atoms: _72  and  _73
REMARK   32  A    between atoms: _79  and  _81
REMARK   33  A    between atoms: _81  and  _82
REMARK   34  A    between atoms: _84  and  _86
REMARK   35  A    between atoms: _86  and  _87
REMARK   36  A    between atoms: _86  and  _89
REMARK   37  A    between atoms: _89  and  _90
REMARK   38  A    between atoms: _90  and  _91
REMARK   39  A    between atoms: _93  and  _95
REMARK   40  A    between atoms: _95  and  _96
REMARK   41  A    between atoms: _95  and  _98
REMARK   42  A    between atoms: _101  and  _103
REMARK   43  A    between atoms: _103  and  _104
REMARK   44  A    between atoms: _103  and  _106
REMARK   45  A    between atoms: _106  and  _107
REMARK   46  A    between atoms: _112  and  _113
REMARK   47  A    between atoms: _115  and  _117
REMARK   48  A    between atoms: _117  and  _118
REMARK   49  A    between atoms: _117  and  _120
REMARK   50  A    between atoms: _120  and  _121
REMARK   51  A    between atoms: _121  and  _122
REMARK   52  A    between atoms: _125  and  _127
REMARK   53  A    between atoms: _127  and  _128
REMARK   54  A    between atoms: _130  and  _132
REMARK   55  A    between atoms: _132  and  _133
REMARK   56  A    between atoms: _132  and  _135
REMARK   57  A    between atoms: _135  and  _136
REMARK   58  A    between atoms: _136  and  _137
REMARK   59  A    between atoms: _137  and  _138
REMARK   60  A    between atoms: _147  and  _149
REMARK   61  A    between atoms: _149  and  _150
REMARK   62  A    between atoms: _149  and  _152
REMARK   63  A    between atoms: _155  and  _157
REMARK   64  A    between atoms: _157  and  _158
REMARK   65  A    between atoms: _161  and  _163
REMARK   66  A    between atoms: _163  and  _164
REMARK   67  A    between atoms: _163  and  _166
REMARK   68  A    between atoms: _169  and  _171
REMARK   69  A    between atoms: _171  and  _172
REMARK   70  A    between atoms: _171  and  _174
REMARK   71  A    between atoms: _174  and  _175
REMARK   72  A    between atoms: _175  and  _176
REMARK   73  A    between atoms: _176  and  _177
REMARK   74  A    between atoms: _177  and  _178
REMARK   75  A    between atoms: _182  and  _184
REMARK   76  A    between atoms: _184  and  _185
REMARK   77  A    between atoms: _184  and  _187
REMARK   78  A    between atoms: _187  and  _188
REMARK   79  A    between atoms: _191  and  _193
REMARK   80  A    between atoms: _193  and  _194
REMARK   81  A    between atoms: _193  and  _196
REMARK   82  A    between atoms: _199  and  _201
REMARK   83  A    between atoms: _201  and  _202
REMARK   84  A    between atoms: _201  and  _204
REMARK   85  A    between atoms: _207  and  _209
REMARK   86  A    between atoms: _209  and  _210
REMARK   87  A    between atoms: _209  and  _212
REMARK   88  A    between atoms: _212  and  _213
REMARK   89  A    between atoms: _213  and  _214
REMARK   90  A    between atoms: _214  and  _215
REMARK   91  A    between atoms: _224  and  _226
REMARK   92  A    between atoms: _226  and  _227
REMARK   93  A    between atoms: _226  and  _229
REMARK   94  A    between atoms: _232  and  _234
REMARK   95  A    between atoms: _234  and  _235
REMARK   96  A    between atoms: _234  and  _237
REMARK   97  A    between atoms: _240  and  _242
REMARK   98  A    between atoms: _242  and  _243
REMARK   99  A    between atoms: _242  and  _245
REMARK  100  A    between atoms: _245  and  _246
REMARK  101  A    between atoms: _246  and  _247
REMARK  102  A    between atoms: _249  and  _251
REMARK  103  A    between atoms: _251  and  _252
REMARK  104  A    between atoms: _251  and  _254
REMARK  105  A    between atoms: _255  and  _256
REMARK  106  A    between atoms: _259  and  _261
REMARK  107  A    between atoms: _261  and  _262
REMARK  108  A    between atoms: _261  and  _264
REMARK  109  A    between atoms: _264  and  _265
REMARK  110  A    between atoms: _268  and  _270
REMARK  111  A    between atoms: _270  and  _271
REMARK  112  A    between atoms: _270  and  _273
REMARK  113  A    between atoms: _273  and  _274
REMARK  114  A    between atoms: _274  and  _275
REMARK  115  A    between atoms: _277  and  _279
REMARK  116  A    between atoms: _279  and  _280
REMARK  117  A    between atoms: _283  and  _285
REMARK  118  A    between atoms: _285  and  _286
REMARK  119  A    between atoms: _285  and  _288
REMARK  120  A    between atoms: _288  and  _289
REMARK  121  A    between atoms: _294  and  _296
REMARK  122  A    between atoms: _296  and  _297
REMARK  123  A    between atoms: _299  and  _301
REMARK  124  A    between atoms: _301  and  _302
REMARK  125  A    between atoms: _301  and  _304
REMARK  126  A    between atoms: _304  and  _305
REMARK  127  A    between atoms: _308  and  _310
REMARK  128  A    between atoms: _310  and  _311
REMARK  129  A    between atoms: _310  and  _313
REMARK  130  A    between atoms: _313  and  _314
REMARK  131  A    between atoms: _317  and  _319
REMARK  132  A    between atoms: _319  and  _320
REMARK  133  A    between atoms: _319  and  _322
REMARK  134  A    between atoms: _322  and  _323
REMARK  135  A    between atoms: _323  and  _324
REMARK  136  A    between atoms: _324  and  _325
REMARK  137  A    between atoms: _325  and  _326
REMARK  138  A    between atoms: _330  and  _332
REMARK  139  A    between atoms: _332  and  _333
REMARK  140  A    between atoms: _332  and  _335
REMARK  141  A    between atoms: _335  and  _336
REMARK  142  A    between atoms: _338  and  _340
REMARK  143  A    between atoms: _340  and  _341
REMARK  144  A    between atoms: _340  and  _343
REMARK  145  A    between atoms: _343  and  _344
REMARK  146  A    between atoms: _349  and  _350
REMARK  147  A    between atoms: _352  and  _354
REMARK  148  A    between atoms: _354  and  _355
REMARK  149  A    between atoms: _354  and  _357
REMARK  150  A    between atoms: _357  and  _358
REMARK  151  A    between atoms: _360  and  _362
REMARK  152  A    between atoms: _362  and  _363
REMARK  153  A    between atoms: _362  and  _365
REMARK  154  A    between atoms: _365  and  _366
REMARK  155  A    between atoms: _369  and  _371
REMARK  156  A    between atoms: _371  and  _372
REMARK  157  A    between atoms: _371  and  _374
REMARK  158  A    between atoms: _374  and  _375
REMARK  159  A    between atoms: _375  and  _376
REMARK  160  A    between atoms: _379  and  _381
REMARK  161  A    between atoms: _381  and  _382
REMARK  162  A    between atoms: _381  and  _384
REMARK  163  A    between atoms: _384  and  _385
REMARK  164  A    between atoms: _390  and  _392
REMARK  165  A    between atoms: _392  and  _393
REMARK  166  A    between atoms: _392  and  _395
REMARK  167  A    between atoms: _395  and  _396
REMARK  168  A    between atoms: _402  and  _403
REMARK  169  A    between atoms: _408  and  _410
REMARK  170  A    between atoms: _410  and  _411
REMARK  171  A    between atoms: _413  and  _415
REMARK  172  A    between atoms: _415  and  _416
REMARK  173  A    between atoms: _415  and  _418
REMARK  174  A    between atoms: _418  and  _419
REMARK  175  A    between atoms: _419  and  _420
REMARK  176  A    between atoms: _420  and  _421
REMARK  177  A    between atoms: _430  and  _432
REMARK  178  A    between atoms: _432  and  _433
REMARK  179  A    between atoms: _432  and  _435
REMARK  180  A    between atoms: _435  and  _436
REMARK  181  A    between atoms: _436  and  _437
REMARK  182  A    between atoms: _437  and  _438
REMARK  183  A    between atoms: _447  and  _449
REMARK  184  A    between atoms: _449  and  _450
REMARK  185  A    between atoms: _449  and  _452
REMARK  186  A    between atoms: _452  and  _453
REMARK  187  A    between atoms: _458  and  _460
REMARK  188  A    between atoms: _460  and  _461
REMARK  189  A    between atoms: _460  and  _463
REMARK  190  A    between atoms: _465  and  _467
REMARK  191  A    between atoms: _467  and  _468
REMARK  192  A    between atoms: _467  and  _470
REMARK  193  A    between atoms: _470  and  _471
REMARK  194  A    between atoms: _471  and  _472
REMARK  195  A    between atoms: _474  and  _476
REMARK  196  A    between atoms: _476  and  _477
REMARK  197  A    between atoms: _476  and  _479
REMARK  198  A    between atoms: _482  and  _484
REMARK  199  A    between atoms: _484  and  _485
REMARK  200  A    between atoms: _484  and  _487
REMARK  201  A    between atoms: _487  and  _488
REMARK  202  A    between atoms: _488  and  _489
REMARK  203  A    between atoms: _489  and  _490
REMARK  204  A    between atoms: _490  and  _491
REMARK  205  A    between atoms: _495  and  _497
REMARK  206  A    between atoms: _497  and  _498
REMARK  207  A    between atoms: _497  and  _500
REMARK  208  A    between atoms: _500  and  _501
REMARK  209  A    between atoms: _504  and  _506
REMARK  210  A    between atoms: _506  and  _507
REMARK  211  A    between atoms: _509  and  _511
REMARK  212  A    between atoms: _511  and  _512
REMARK  213  A    between atoms: _511  and  _514
REMARK  214  A    between atoms: _514  and  _515
REMARK  215  A    between atoms: _518  and  _520
REMARK  216  A    between atoms: _520  and  _521
REMARK  217  A    between atoms: _520  and  _523
REMARK  218  A    between atoms: _523  and  _524
REMARK                            x       y       z     vdW  Elec       q    Type
REMARK                         _______ _______ _______ _____ _____    ______ ____
ROOT
ATOM      1  O   HOH     1       3.421  16.165  33.851  0.00  0.00    +0.000 OA
ENDROOT
TORSDOF 0
REMARK  Name = ../refined-set-2016/5e1s/5e1s_pocket.pdb
REMARK  218 active torsions:
REMARK  status: ('A' for Active; 'I' for Inactive)
REMARK    1  A    between atoms: _1  and  _3
REMARK    2  A    between atoms: _3  and  _4
REMARK    3  A    between atoms: _3  and  _6
REMARK    4  A    between atoms: _6  and  _7
REMARK    5  A    between atoms: _7  and  _8
REMARK    6  A    between atoms: _8  and  _9
REMARK    7  A    between atoms: _18  and  _20
REMARK    8  A    between atoms: _20  and  _21
REMARK    9  A    between atoms: _20  and  _23
REMARK   10  A    between atoms: _24  and  _25
REMARK   11  A    between atoms: _28  and  _30
REMARK   12  A    between atoms: _30  and  _31
REMARK   13  A    between atoms: _30  and  _33
REMARK   14  A    between atoms: _33  and  _34
REMARK   15  A    between atoms: _37  and  _39
REMARK   16  A    between atoms: _39  and  _40
REMARK   17  A    between atoms: _42  and  _44
REMARK   18  A    between atoms: _44  and  _45
REMARK   19  A    between atoms: _44  and  _47
REMARK   20  A    between atoms: _47  and  _48
REMARK   21  A    between atoms: _48  and  _49
REMARK   22  A    between atoms: _54  and  _56
REMARK   23  A    between atoms: _56  and  _57
REMARK   24  A    between atoms: _59  and  _61
REMARK   25  A    between atoms: _61  and  _62
REMARK   26  A    between atoms: _61  and  _64
REMARK   27  A    between atoms: _64  and  _65
REMARK   28  A    between atoms: _67  and  _69
REMARK   29  A    between atoms: _69  and  _70
REMARK   30  A    between atoms: _69  and  _72
REMARK   31  A    between atoms: _72  and  _73
REMARK   32  A    between atoms: _79  and  _81
REMARK   33  A    between atoms: _81  and  _82
REMARK   34  A    between atoms: _84  and  _86
REMARK   35  A    between atoms: _86  and  _87
REMARK   36  A    between atoms: _86  and  _89
REMARK   37  A    between atoms: _89  and  _90
REMARK   38  A    between atoms: _90  and  _91
REMARK   39  A    between atoms: _93  and  _95
REMARK   40  A    between atoms: _95  and  _96
REMARK   41  A    between atoms: _95  and  _98
REMARK   42  A    between atoms: _101  and  _103
REMARK   43  A    between atoms: _103  and  _104
REMARK   44  A    between atoms: _103  and  _106
REMARK   45  A    between atoms: _106  and  _107
REMARK   46  A    between atoms: _112  and  _113
REMARK   47  A    between atoms: _115  and  _117
REMARK   48  A    between atoms: _117  and  _118
REMARK   49  A    between atoms: _117  and  _120
REMARK   50  A    between atoms: _120  and  _121
REMARK   51  A    between atoms: _121  and  _122
REMARK   52  A    between atoms: _125  and  _127
REMARK   53  A    between atoms: _127  and  _128
REMARK   54  A    between atoms: _130  and  _132
REMARK   55  A    between atoms: _132  and  _133
REMARK   56  A    between atoms: _132  and  _135
REMARK   57  A    between atoms: _135  and  _136
REMARK   58  A    between atoms: _136  and  _137
REMARK   59  A    between atoms: _137  and  _138
REMARK   60  A    between atoms: _147  and  _149
REMARK   61  A    between atoms: _149  and  _150
REMARK   62  A    between atoms: _149  and  _152
REMARK   63  A    between atoms: _155  and  _157
REMARK   64  A    between atoms: _157  and  _158
REMARK   65  A    between atoms: _161  and  _163
REMARK   66  A    between atoms: _163  and  _164
REMARK   67  A    between atoms: _163  and  _166
REMARK   68  A    between atoms: _169  and  _171
REMARK   69  A    between atoms: _171  and  _172
REMARK   70  A    between atoms: _171  and  _174
REMARK   71  A    between atoms: _174  and  _175
REMARK   72  A    between atoms: _175  and  _176
REMARK   73  A    between atoms: _176  and  _177
REMARK   74  A    between atoms: _177  and  _178
REMARK   75  A    between atoms: _182  and  _184
REMARK   76  A    between atoms: _184  and  _185
REMARK   77  A    between atoms: _184  and  _187
REMARK   78  A    between atoms: _187  and  _188
REMARK   79  A    between atoms: _191  and  _193
REMARK   80  A    between atoms: _193  and  _194
REMARK   81  A    between atoms: _193  and  _196
REMARK   82  A    between atoms: _199  and  _201
REMARK   83  A    between atoms: _201  and  _202
REMARK   84  A    between atoms: _201  and  _204
REMARK   85  A    between atoms: _207  and  _209
REMARK   86  A    between atoms: _209  and  _210
REMARK   87  A    between atoms: _209  and  _212
REMARK   88  A    between atoms: _212  and  _213
REMARK   89  A    between atoms: _213  and  _214
REMARK   90  A    between atoms: _214  and  _215
REMARK   91  A    between atoms: _224  and  _226
REMARK   92  A    between atoms: _226  and  _227
REMARK   93  A    between atoms: _226  and  _229
REMARK   94  A    between atoms: _232  and  _234
REMARK   95  A    between atoms: _234  and  _235
REMARK   96  A    between atoms: _234  and  _237
REMARK   97  A    between atoms: _240  and  _242
REMARK   98  A    between atoms: _242  and  _243
REMARK   99  A    between atoms: _242  and  _245
REMARK  100  A    between atoms: _245  and  _246
REMARK  101  A    between atoms: _246  and  _247
REMARK  102  A    between atoms: _249  and  _251
REMARK  103  A    between atoms: _251  and  _252
REMARK  104  A    between atoms: _251  and  _254
REMARK  105  A    between atoms: _255  and  _256
REMARK  106  A    between atoms: _259  and  _261
REMARK  107  A    between atoms: _261  and  _262
REMARK  108  A    between atoms: _261  and  _264
REMARK  109  A    between atoms: _264  and  _265
REMARK  110  A    between atoms: _268  and  _270
REMARK  111  A    between atoms: _270  and  _271
REMARK  112  A    between atoms: _270  and  _273
REMARK  113  A    between atoms: _273  and  _274
REMARK  114  A    between atoms: _274  and  _275
REMARK  115  A    between atoms: _277  and  _279
REMARK  116  A    between atoms: _279  and  _280
REMARK  117  A    between atoms: _283  and  _285
REMARK  118  A    between atoms: _285  and  _286
REMARK  119  A    between atoms: _285  and  _288
REMARK  120  A    between atoms: _288  and  _289
REMARK  121  A    between atoms: _294  and  _296
REMARK  122  A    between atoms: _296  and  _297
REMARK  123  A    between atoms: _299  and  _301
REMARK  124  A    between atoms: _301  and  _302
REMARK  125  A    between atoms: _301  and  _304
REMARK  126  A    between atoms: _304  and  _305
REMARK  127  A    between atoms: _308  and  _310
REMARK  128  A    between atoms: _310  and  _311
REMARK  129  A    between atoms: _310  and  _313
REMARK  130  A    between atoms: _313  and  _314
REMARK  131  A    between atoms: _317  and  _319
REMARK  132  A    between atoms: _319  and  _320
REMARK  133  A    between atoms: _319  and  _322
REMARK  134  A    between atoms: _322  and  _323
REMARK  135  A    between atoms: _323  and  _324
REMARK  136  A    between atoms: _324  and  _325
REMARK  137  A    between atoms: _325  and  _326
REMARK  138  A    between atoms: _330  and  _332
REMARK  139  A    between atoms: _332  and  _333
REMARK  140  A    between atoms: _332  and  _335
REMARK  141  A    between atoms: _335  and  _336
REMARK  142  A    between atoms: _338  and  _340
REMARK  143  A    between atoms: _340  and  _341
REMARK  144  A    between atoms: _340  and  _343
REMARK  145  A    between atoms: _343  and  _344
REMARK  146  A    between atoms: _349  and  _350
REMARK  147  A    between atoms: _352  and  _354
REMARK  148  A    between atoms: _354  and  _355
REMARK  149  A    between atoms: _354  and  _357
REMARK  150  A    between atoms: _357  and  _358
REMARK  151  A    between atoms: _360  and  _362
REMARK  152  A    between atoms: _362  and  _363
REMARK  153  A    between atoms: _362  and  _365
REMARK  154  A    between atoms: _365  and  _366
REMARK  155  A    between atoms: _369  and  _371
REMARK  156  A    between atoms: _371  and  _372
REMARK  157  A    between atoms: _371  and  _374
REMARK  158  A    between atoms: _374  and  _375
REMARK  159  A    between atoms: _375  and  _376
REMARK  160  A    between atoms: _379  and  _381
REMARK  161  A    between atoms: _381  and  _382
REMARK  162  A    between atoms: _381  and  _384
REMARK  163  A    between atoms: _384  and  _385
REMARK  164  A    between atoms: _390  and  _392
REMARK  165  A    between atoms: _392  and  _393
REMARK  166  A    between atoms: _392  and  _395
REMARK  167  A    between atoms: _395  and  _396
REMARK  168  A    between atoms: _402  and  _403
REMARK  169  A    between atoms: _408  and  _410
REMARK  170  A    between atoms: _410  and  _411
REMARK  171  A    between atoms: _413  and  _415
REMARK  172  A    between atoms: _415  and  _416
REMARK  173  A    between atoms: _415  and  _418
REMARK  174  A    between atoms: _418  and  _419
REMARK  175  A    between atoms: _419  and  _420
REMARK  176  A    between atoms: _420  and  _421
REMARK  177  A    between atoms: _430  and  _432
REMARK  178  A    between atoms: _432  and  _433
REMARK  179  A    between atoms: _432  and  _435
REMARK  180  A    between atoms: _435  and  _436
REMARK  181  A    between atoms: _436  and  _437
REMARK  182  A    between atoms: _437  and  _438
REMARK  183  A    between atoms: _447  and  _449
REMARK  184  A    between atoms: _449  and  _450
REMARK  185  A    between atoms: _449  and  _452
REMARK  186  A    between atoms: _452  and  _453
REMARK  187  A    between atoms: _458  and  _460
REMARK  188  A    between atoms: _460  and  _461
REMARK  189  A    between atoms: _460  and  _463
REMARK  190  A    between atoms: _465  and  _467
REMARK  191  A    between atoms: _467  and  _468
REMARK  192  A    between atoms: _467  and  _470
REMARK  193  A    between atoms: _470  and  _471
REMARK  194  A    between atoms: _471  and  _472
REMARK  195  A    between atoms: _474  and  _476
REMARK  196  A    between atoms: _476  and  _477
REMARK  197  A    between atoms: _476  and  _479
REMARK  198  A    between atoms: _482  and  _484
REMARK  199  A    between atoms: _484  and  _485
REMARK  200  A    between atoms: _484  and  _487
REMARK  201  A    between atoms: _487  and  _488
REMARK  202  A    between atoms: _488  and  _489
REMARK  203  A    between atoms: _489  and  _490
REMARK  204  A    between atoms: _490  and  _491
REMARK  205  A    between atoms: _495  and  _497
REMARK  206  A    between atoms: _497  and  _498
REMARK  207  A    between atoms: _497  and  _500
REMARK  208  A    between atoms: _500  and  _501
REMARK  209  A    between atoms: _504  and  _506
REMARK  210  A    between atoms: _506  and  _507
REMARK  211  A    between atoms: _509  and  _511
REMARK  212  A    between atoms: _511  and  _512
REMARK  213  A    between atoms: _511  and  _514
REMARK  214  A    between atoms: _514  and  _515
REMARK  215  A    between atoms: _518  and  _520
REMARK  216  A    between atoms: _520  and  _521
REMARK  217  A    between atoms: _520  and  _523
REMARK  218  A    between atoms: _523  and  _524
REMARK                            x       y       z     vdW  Elec       q    Type
REMARK                         _______ _______ _______ _____ _____    ______ ____
ROOT
ATOM      1  O   HOH     1      11.952  20.616  18.690  0.00  0.00    +0.000 OA
ENDROOT
TORSDOF 0
REMARK  Name = ../refined-set-2016/5e1s/5e1s_pocket.pdb
REMARK  218 active torsions:
REMARK  status: ('A' for Active; 'I' for Inactive)
REMARK    1  A    between atoms: _1  and  _3
REMARK    2  A    between atoms: _3  and  _4
REMARK    3  A    between atoms: _3  and  _6
REMARK    4  A    between atoms: _6  and  _7
REMARK    5  A    between atoms: _7  and  _8
REMARK    6  A    between atoms: _8  and  _9
REMARK    7  A    between atoms: _18  and  _20
REMARK    8  A    between atoms: _20  and  _21
REMARK    9  A    between atoms: _20  and  _23
REMARK   10  A    between atoms: _24  and  _25
REMARK   11  A    between atoms: _28  and  _30
REMARK   12  A    between atoms: _30  and  _31
REMARK   13  A    between atoms: _30  and  _33
REMARK   14  A    between atoms: _33  and  _34
REMARK   15  A    between atoms: _37  and  _39
REMARK   16  A    between atoms: _39  and  _40
REMARK   17  A    between atoms: _42  and  _44
REMARK   18  A    between atoms: _44  and  _45
REMARK   19  A    between atoms: _44  and  _47
REMARK   20  A    between atoms: _47  and  _48
REMARK   21  A    between atoms: _48  and  _49
REMARK   22  A    between atoms: _54  and  _56
REMARK   23  A    between atoms: _56  and  _57
REMARK   24  A    between atoms: _59  and  _61
REMARK   25  A    between atoms: _61  and  _62
REMARK   26  A    between atoms: _61  and  _64
REMARK   27  A    between atoms: _64  and  _65
REMARK   28  A    between atoms: _67  and  _69
REMARK   29  A    between atoms: _69  and  _70
REMARK   30  A    between atoms: _69  and  _72
REMARK   31  A    between atoms: _72  and  _73
REMARK   32  A    between atoms: _79  and  _81
REMARK   33  A    between atoms: _81  and  _82
REMARK   34  A    between atoms: _84  and  _86
REMARK   35  A    between atoms: _86  and  _87
REMARK   36  A    between atoms: _86  and  _89
REMARK   37  A    between atoms: _89  and  _90
REMARK   38  A    between atoms: _90  and  _91
REMARK   39  A    between atoms: _93  and  _95
REMARK   40  A    between atoms: _95  and  _96
REMARK   41  A    between atoms: _95  and  _98
REMARK   42  A    between atoms: _101  and  _103
REMARK   43  A    between atoms: _103  and  _104
REMARK   44  A    between atoms: _103  and  _106
REMARK   45  A    between atoms: _106  and  _107
REMARK   46  A    between atoms: _112  and  _113
REMARK   47  A    between atoms: _115  and  _117
REMARK   48  A    between atoms: _117  and  _118
REMARK   49  A    between atoms: _117  and  _120
REMARK   50  A    between atoms: _120  and  _121
REMARK   51  A    between atoms: _121  and  _122
REMARK   52  A    between atoms: _125  and  _127
REMARK   53  A    between atoms: _127  and  _128
REMARK   54  A    between atoms: _130  and  _132
REMARK   55  A    between atoms: _132  and  _133
REMARK   56  A    between atoms: _132  and  _135
REMARK   57  A    between atoms: _135  and  _136
REMARK   58  A    between atoms: _136  and  _137
REMARK   59  A    between atoms: _137  and  _138
REMARK   60  A    between atoms: _147  and  _149
REMARK   61  A    between atoms: _149  and  _150
REMARK   62  A    between atoms: _149  and  _152
REMARK   63  A    between atoms: _155  and  _157
REMARK   64  A    between atoms: _157  and  _158
REMARK   65  A    between atoms: _161  and  _163
REMARK   66  A    between atoms: _163  and  _164
REMARK   67  A    between atoms: _163  and  _166
REMARK   68  A    between atoms: _169  and  _171
REMARK   69  A    between atoms: _171  and  _172
REMARK   70  A    between atoms: _171  and  _174
REMARK   71  A    between atoms: _174  and  _175
REMARK   72  A    between atoms: _175  and  _176
REMARK   73  A    between atoms: _176  and  _177
REMARK   74  A    between atoms: _177  and  _178
REMARK   75  A    between atoms: _182  and  _184
REMARK   76  A    between atoms: _184  and  _185
REMARK   77  A    between atoms: _184  and  _187
REMARK   78  A    between atoms: _187  and  _188
REMARK   79  A    between atoms: _191  and  _193
REMARK   80  A    between atoms: _193  and  _194
REMARK   81  A    between atoms: _193  and  _196
REMARK   82  A    between atoms: _199  and  _201
REMARK   83  A    between atoms: _201  and  _202
REMARK   84  A    between atoms: _201  and  _204
REMARK   85  A    between atoms: _207  and  _209
REMARK   86  A    between atoms: _209  and  _210
REMARK   87  A    between atoms: _209  and  _212
REMARK   88  A    between atoms: _212  and  _213
REMARK   89  A    between atoms: _213  and  _214
REMARK   90  A    between atoms: _214  and  _215
REMARK   91  A    between atoms: _224  and  _226
REMARK   92  A    between atoms: _226  and  _227
REMARK   93  A    between atoms: _226  and  _229
REMARK   94  A    between atoms: _232  and  _234
REMARK   95  A    between atoms: _234  and  _235
REMARK   96  A    between atoms: _234  and  _237
REMARK   97  A    between atoms: _240  and  _242
REMARK   98  A    between atoms: _242  and  _243
REMARK   99  A    between atoms: _242  and  _245
REMARK  100  A    between atoms: _245  and  _246
REMARK  101  A    between atoms: _246  and  _247
REMARK  102  A    between atoms: _249  and  _251
REMARK  103  A    between atoms: _251  and  _252
REMARK  104  A    between atoms: _251  and  _254
REMARK  105  A    between atoms: _255  and  _256
REMARK  106  A    between atoms: _259  and  _261
REMARK  107  A    between atoms: _261  and  _262
REMARK  108  A    between atoms: _261  and  _264
REMARK  109  A    between atoms: _264  and  _265
REMARK  110  A    between atoms: _268  and  _270
REMARK  111  A    between atoms: _270  and  _271
REMARK  112  A    between atoms: _270  and  _273
REMARK  113  A    between atoms: _273  and  _274
REMARK  114  A    between atoms: _274  and  _275
REMARK  115  A    between atoms: _277  and  _279
REMARK  116  A    between atoms: _279  and  _280
REMARK  117  A    between atoms: _283  and  _285
REMARK  118  A    between atoms: _285  and  _286
REMARK  119  A    between atoms: _285  and  _288
REMARK  120  A    between atoms: _288  and  _289
REMARK  121  A    between atoms: _294  and  _296
REMARK  122  A    between atoms: _296  and  _297
REMARK  123  A    between atoms: _299  and  _301
REMARK  124  A    between atoms: _301  and  _302
REMARK  125  A    between atoms: _301  and  _304
REMARK  126  A    between atoms: _304  and  _305
REMARK  127  A    between atoms: _308  and  _310
REMARK  128  A    between atoms: _310  and  _311
REMARK  129  A    between atoms: _310  and  _313
REMARK  130  A    between atoms: _313  and  _314
REMARK  131  A    between atoms: _317  and  _319
REMARK  132  A    between atoms: _319  and  _320
REMARK  133  A    between atoms: _319  and  _322
REMARK  134  A    between atoms: _322  and  _323
REMARK  135  A    between atoms: _323  and  _324
REMARK  136  A    between atoms: _324  and  _325
REMARK  137  A    between atoms: _325  and  _326
REMARK  138  A    between atoms: _330  and  _332
REMARK  139  A    between atoms: _332  and  _333
REMARK  140  A    between atoms: _332  and  _335
REMARK  141  A    between atoms: _335  and  _336
REMARK  142  A    between atoms: _338  and  _340
REMARK  143  A    between atoms: _340  and  _341
REMARK  144  A    between atoms: _340  and  _343
REMARK  145  A    between atoms: _343  and  _344
REMARK  146  A    between atoms: _349  and  _350
REMARK  147  A    between atoms: _352  and  _354
REMARK  148  A    between atoms: _354  and  _355
REMARK  149  A    between atoms: _354  and  _357
REMARK  150  A    between atoms: _357  and  _358
REMARK  151  A    between atoms: _360  and  _362
REMARK  152  A    between atoms: _362  and  _363
REMARK  153  A    between atoms: _362  and  _365
REMARK  154  A    between atoms: _365  and  _366
REMARK  155  A    between atoms: _369  and  _371
REMARK  156  A    between atoms: _371  and  _372
REMARK  157  A    between atoms: _371  and  _374
REMARK  158  A    between atoms: _374  and  _375
REMARK  159  A    between atoms: _375  and  _376
REMARK  160  A    between atoms: _379  and  _381
REMARK  161  A    between atoms: _381  and  _382
REMARK  162  A    between atoms: _381  and  _384
REMARK  163  A    between atoms: _384  and  _385
REMARK  164  A    between atoms: _390  and  _392
REMARK  165  A    between atoms: _392  and  _393
REMARK  166  A    between atoms: _392  and  _395
REMARK  167  A    between atoms: _395  and  _396
REMARK  168  A    between atoms: _402  and  _403
REMARK  169  A    between atoms: _408  and  _410
REMARK  170  A    between atoms: _410  and  _411
REMARK  171  A    between atoms: _413  and  _415
REMARK  172  A    between atoms: _415  and  _416
REMARK  173  A    between atoms: _415  and  _418
REMARK  174  A    between atoms: _418  and  _419
REMARK  175  A    between atoms: _419  and  _420
REMARK  176  A    between atoms: _420  and  _421
REMARK  177  A    between atoms: _430  and  _432
REMARK  178  A    between atoms: _432  and  _433
REMARK  179  A    between atoms: _432  and  _435
REMARK  180  A    between atoms: _435  and  _436
REMARK  181  A    between atoms: _436  and  _437
REMARK  182  A    between atoms: _437  and  _438
REMARK  183  A    between atoms: _447  and  _449
REMARK  184  A    between atoms: _449  and  _450
REMARK  185  A    between atoms: _449  and  _452
REMARK  186  A    between atoms: _452  and  _453
REMARK  187  A    between atoms: _458  and  _460
REMARK  188  A    between atoms: _460  and  _461
REMARK  189  A    between atoms: _460  and  _463
REMARK  190  A    between atoms: _465  and  _467
REMARK  191  A    between atoms: _467  and  _468
REMARK  192  A    between atoms: _467  and  _470
REMARK  193  A    between atoms: _470  and  _471
REMARK  194  A    between atoms: _471  and  _472
REMARK  195  A    between atoms: _474  and  _476
REMARK  196  A    between atoms: _476  and  _477
REMARK  197  A    between atoms: _476  and  _479
REMARK  198  A    between atoms: _482  and  _484
REMARK  199  A    between atoms: _484  and  _485
REMARK  200  A    between atoms: _484  and  _487
REMARK  201  A    between atoms: _487  and  _488
REMARK  202  A    between atoms: _488  and  _489
REMARK  203  A    between atoms: _489  and  _490
REMARK  204  A    between atoms: _490  and  _491
REMARK  205  A    between atoms: _495  and  _497
REMARK  206  A    between atoms: _497  and  _498
REMARK  207  A    between atoms: _497  and  _500
REMARK  208  A    between atoms: _500  and  _501
REMARK  209  A    between atoms: _504  and  _506
REMARK  210  A    between atoms: _506  and  _507
REMARK  211  A    between atoms: _509  and  _511
REMARK  212  A    between atoms: _511  and  _512
REMARK  213  A    between atoms: _511  and  _514
REMARK  214  A    between atoms: _514  and  _515
REMARK  215  A    between atoms: _518  and  _520
REMARK  216  A    between atoms: _520  and  _521
REMARK  217  A    between atoms: _520  and  _523
REMARK  218  A    between atoms: _523  and  _524
REMARK                            x       y       z     vdW  Elec       q    Type
REMARK                         _______ _______ _______ _____ _____    ______ ____
ROOT
ATOM      1  O   HOH     1       1.469  16.226  27.350  0.00  0.00    +0.000 OA
ENDROOT
TORSDOF 0
REMARK  Name = ../refined-set-2016/5e1s/5e1s_pocket.pdb
REMARK  218 active torsions:
REMARK  status: ('A' for Active; 'I' for Inactive)
REMARK    1  A    between atoms: _1  and  _3
REMARK    2  A    between atoms: _3  and  _4
REMARK    3  A    between atoms: _3  and  _6
REMARK    4  A    between atoms: _6  and  _7
REMARK    5  A    between atoms: _7  and  _8
REMARK    6  A    between atoms: _8  and  _9
REMARK    7  A    between atoms: _18  and  _20
REMARK    8  A    between atoms: _20  and  _21
REMARK    9  A    between atoms: _20  and  _23
REMARK   10  A    between atoms: _24  and  _25
REMARK   11  A    between atoms: _28  and  _30
REMARK   12  A    between atoms: _30  and  _31
REMARK   13  A    between atoms: _30  and  _33
REMARK   14  A    between atoms: _33  and  _34
REMARK   15  A    between atoms: _37  and  _39
REMARK   16  A    between atoms: _39  and  _40
REMARK   17  A    between atoms: _42  and  _44
REMARK   18  A    between atoms: _44  and  _45
REMARK   19  A    between atoms: _44  and  _47
REMARK   20  A    between atoms: _47  and  _48
REMARK   21  A    between atoms: _48  and  _49
REMARK   22  A    between atoms: _54  and  _56
REMARK   23  A    between atoms: _56  and  _57
REMARK   24  A    between atoms: _59  and  _61
REMARK   25  A    between atoms: _61  and  _62
REMARK   26  A    between atoms: _61  and  _64
REMARK   27  A    between atoms: _64  and  _65
REMARK   28  A    between atoms: _67  and  _69
REMARK   29  A    between atoms: _69  and  _70
REMARK   30  A    between atoms: _69  and  _72
REMARK   31  A    between atoms: _72  and  _73
REMARK   32  A    between atoms: _79  and  _81
REMARK   33  A    between atoms: _81  and  _82
REMARK   34  A    between atoms: _84  and  _86
REMARK   35  A    between atoms: _86  and  _87
REMARK   36  A    between atoms: _86  and  _89
REMARK   37  A    between atoms: _89  and  _90
REMARK   38  A    between atoms: _90  and  _91
REMARK   39  A    between atoms: _93  and  _95
REMARK   40  A    between atoms: _95  and  _96
REMARK   41  A    between atoms: _95  and  _98
REMARK   42  A    between atoms: _101  and  _103
REMARK   43  A    between atoms: _103  and  _104
REMARK   44  A    between atoms: _103  and  _106
REMARK   45  A    between atoms: _106  and  _107
REMARK   46  A    between atoms: _112  and  _113
REMARK   47  A    between atoms: _115  and  _117
REMARK   48  A    between atoms: _117  and  _118
REMARK   49  A    between atoms: _117  and  _120
REMARK   50  A    between atoms: _120  and  _121
REMARK   51  A    between atoms: _121  and  _122
REMARK   52  A    between atoms: _125  and  _127
REMARK   53  A    between atoms: _127  and  _128
REMARK   54  A    between atoms: _130  and  _132
REMARK   55  A    between atoms: _132  and  _133
REMARK   56  A    between atoms: _132  and  _135
REMARK   57  A    between atoms: _135  and  _136
REMARK   58  A    between atoms: _136  and  _137
REMARK   59  A    between atoms: _137  and  _138
REMARK   60  A    between atoms: _147  and  _149
REMARK   61  A    between atoms: _149  and  _150
REMARK   62  A    between atoms: _149  and  _152
REMARK   63  A    between atoms: _155  and  _157
REMARK   64  A    between atoms: _157  and  _158
REMARK   65  A    between atoms: _161  and  _163
REMARK   66  A    between atoms: _163  and  _164
REMARK   67  A    between atoms: _163  and  _166
REMARK   68  A    between atoms: _169  and  _171
REMARK   69  A    between atoms: _171  and  _172
REMARK   70  A    between atoms: _171  and  _174
REMARK   71  A    between atoms: _174  and  _175
REMARK   72  A    between atoms: _175  and  _176
REMARK   73  A    between atoms: _176  and  _177
REMARK   74  A    between atoms: _177  and  _178
REMARK   75  A    between atoms: _182  and  _184
REMARK   76  A    between atoms: _184  and  _185
REMARK   77  A    between atoms: _184  and  _187
REMARK   78  A    between atoms: _187  and  _188
REMARK   79  A    between atoms: _191  and  _193
REMARK   80  A    between atoms: _193  and  _194
REMARK   81  A    between atoms: _193  and  _196
REMARK   82  A    between atoms: _199  and  _201
REMARK   83  A    between atoms: _201  and  _202
REMARK   84  A    between atoms: _201  and  _204
REMARK   85  A    between atoms: _207  and  _209
REMARK   86  A    between atoms: _209  and  _210
REMARK   87  A    between atoms: _209  and  _212
REMARK   88  A    between atoms: _212  and  _213
REMARK   89  A    between atoms: _213  and  _214
REMARK   90  A    between atoms: _214  and  _215
REMARK   91  A    between atoms: _224  and  _226
REMARK   92  A    between atoms: _226  and  _227
REMARK   93  A    between atoms: _226  and  _229
REMARK   94  A    between atoms: _232  and  _234
REMARK   95  A    between atoms: _234  and  _235
REMARK   96  A    between atoms: _234  and  _237
REMARK   97  A    between atoms: _240  and  _242
REMARK   98  A    between atoms: _242  and  _243
REMARK   99  A    between atoms: _242  and  _245
REMARK  100  A    between atoms: _245  and  _246
REMARK  101  A    between atoms: _246  and  _247
REMARK  102  A    between atoms: _249  and  _251
REMARK  103  A    between atoms: _251  and  _252
REMARK  104  A    between atoms: _251  and  _254
REMARK  105  A    between atoms: _255  and  _256
REMARK  106  A    between atoms: _259  and  _261
REMARK  107  A    between atoms: _261  and  _262
REMARK  108  A    between atoms: _261  and  _264
REMARK  109  A    between atoms: _264  and  _265
REMARK  110  A    between atoms: _268  and  _270
REMARK  111  A    between atoms: _270  and  _271
REMARK  112  A    between atoms: _270  and  _273
REMARK  113  A    between atoms: _273  and  _274
REMARK  114  A    between atoms: _274  and  _275
REMARK  115  A    between atoms: _277  and  _279
REMARK  116  A    between atoms: _279  and  _280
REMARK  117  A    between atoms: _283  and  _285
REMARK  118  A    between atoms: _285  and  _286
REMARK  119  A    between atoms: _285  and  _288
REMARK  120  A    between atoms: _288  and  _289
REMARK  121  A    between atoms: _294  and  _296
REMARK  122  A    between atoms: _296  and  _297
REMARK  123  A    between atoms: _299  and  _301
REMARK  124  A    between atoms: _301  and  _302
REMARK  125  A    between atoms: _301  and  _304
REMARK  126  A    between atoms: _304  and  _305
REMARK  127  A    between atoms: _308  and  _310
REMARK  128  A    between atoms: _310  and  _311
REMARK  129  A    between atoms: _310  and  _313
REMARK  130  A    between atoms: _313  and  _314
REMARK  131  A    between atoms: _317  and  _319
REMARK  132  A    between atoms: _319  and  _320
REMARK  133  A    between atoms: _319  and  _322
REMARK  134  A    between atoms: _322  and  _323
REMARK  135  A    between atoms: _323  and  _324
REMARK  136  A    between atoms: _324  and  _325
REMARK  137  A    between atoms: _325  and  _326
REMARK  138  A    between atoms: _330  and  _332
REMARK  139  A    between atoms: _332  and  _333
REMARK  140  A    between atoms: _332  and  _335
REMARK  141  A    between atoms: _335  and  _336
REMARK  142  A    between atoms: _338  and  _340
REMARK  143  A    between atoms: _340  and  _341
REMARK  144  A    between atoms: _340  and  _343
REMARK  145  A    between atoms: _343  and  _344
REMARK  146  A    between atoms: _349  and  _350
REMARK  147  A    between atoms: _352  and  _354
REMARK  148  A    between atoms: _354  and  _355
REMARK  149  A    between atoms: _354  and  _357
REMARK  150  A    between atoms: _357  and  _358
REMARK  151  A    between atoms: _360  and  _362
REMARK  152  A    between atoms: _362  and  _363
REMARK  153  A    between atoms: _362  and  _365
REMARK  154  A    between atoms: _365  and  _366
REMARK  155  A    between atoms: _369  and  _371
REMARK  156  A    between atoms: _371  and  _372
REMARK  157  A    between atoms: _371  and  _374
REMARK  158  A    between atoms: _374  and  _375
REMARK  159  A    between atoms: _375  and  _376
REMARK  160  A    between atoms: _379  and  _381
REMARK  161  A    between atoms: _381  and  _382
REMARK  162  A    between atoms: _381  and  _384
REMARK  163  A    between atoms: _384  and  _385
REMARK  164  A    between atoms: _390  and  _392
REMARK  165  A    between atoms: _392  and  _393
REMARK  166  A    between atoms: _392  and  _395
REMARK  167  A    between atoms: _395  and  _396
REMARK  168  A    between atoms: _402  and  _403
REMARK  169  A    between atoms: _408  and  _410
REMARK  170  A    between atoms: _410  and  _411
REMARK  171  A    between atoms: _413  and  _415
REMARK  172  A    between atoms: _415  and  _416
REMARK  173  A    between atoms: _415  and  _418
REMARK  174  A    between atoms: _418  and  _419
REMARK  175  A    between atoms: _419  and  _420
REMARK  176  A    between atoms: _420  and  _421
REMARK  177  A    between atoms: _430  and  _432
REMARK  178  A    between atoms: _432  and  _433
REMARK  179  A    between atoms: _432  and  _435
REMARK  180  A    between atoms: _435  and  _436
REMARK  181  A    between atoms: _436  and  _437
REMARK  182  A    between atoms: _437  and  _438
REMARK  183  A    between atoms: _447  and  _449
REMARK  184  A    between atoms: _449  and  _450
REMARK  185  A    between atoms: _449  and  _452
REMARK  186  A    between atoms: _452  and  _453
REMARK  187  A    between atoms: _458  and  _460
REMARK  188  A    between atoms: _460  and  _461
REMARK  189  A    between atoms: _460  and  _463
REMARK  190  A    between atoms: _465  and  _467
REMARK  191  A    between atoms: _467  and  _468
REMARK  192  A    between atoms: _467  and  _470
REMARK  193  A    between atoms: _470  and  _471
REMARK  194  A    between atoms: _471  and  _472
REMARK  195  A    between atoms: _474  and  _476
REMARK  196  A    between atoms: _476  and  _477
REMARK  197  A    between atoms: _476  and  _479
REMARK  198  A    between atoms: _482  and  _484
REMARK  199  A    between atoms: _484  and  _485
REMARK  200  A    between atoms: _484  and  _487
REMARK  201  A    between atoms: _487  and  _488
REMARK  202  A    between atoms: _488  and  _489
REMARK  203  A    between atoms: _489  and  _490
REMARK  204  A    between atoms: _490  and  _491
REMARK  205  A    between atoms: _495  and  _497
REMARK  206  A    between atoms: _497  and  _498
REMARK  207  A    between atoms: _497  and  _500
REMARK  208  A    between atoms: _500  and  _501
REMARK  209  A    between atoms: _504  and  _506
REMARK  210  A    between atoms: _506  and  _507
REMARK  211  A    between atoms: _509  and  _511
REMARK  212  A    between atoms: _511  and  _512
REMARK  213  A    between atoms: _511  and  _514
REMARK  214  A    between atoms: _514  and  _515
REMARK  215  A    between atoms: _518  and  _520
REMARK  216  A    between atoms: _520  and  _521
REMARK  217  A    between atoms: _520  and  _523
REMARK  218  A    between atoms: _523  and  _524
REMARK                            x       y       z     vdW  Elec       q    Type
REMARK                         _______ _______ _______ _____ _____    ______ ____
ROOT
ATOM      1  O   HOH     1      10.050  24.123  23.804  0.00  0.00    +0.000 OA
ENDROOT
TORSDOF 0
