REMARK  Name = ../refined-set-2016/3t0b/3t0b_pocket.pdb
REMARK  189 active torsions:
REMARK  status: ('A' for Active; 'I' for Inactive)
REMARK    1  A    between atoms: _1  and  _3
REMARK    2  A    between atoms: _3  and  _4
REMARK    3  A    between atoms: _3  and  _6
REMARK    4  A    between atoms: _6  and  _7
REMARK    5  A    between atoms: _12  and  _13
REMARK    6  A    between atoms: _15  and  _17
REMARK    7  A    between atoms: _17  and  _18
REMARK    8  A    between atoms: _17  and  _20
REMARK    9  A    between atoms: _20  and  _21
REMARK   10  A    between atoms: _24  and  _26
REMARK   11  A    between atoms: _26  and  _27
REMARK   12  A    between atoms: _26  and  _29
REMARK   13  A    between atoms: _29  and  _30
REMARK   14  A    between atoms: _35  and  _37
REMARK   15  A    between atoms: _37  and  _38
REMARK   16  A    between atoms: _37  and  _40
REMARK   17  A    between atoms: _43  and  _45
REMARK   18  A    between atoms: _45  and  _46
REMARK   19  A    between atoms: _45  and  _48
REMARK   20  A    between atoms: _48  and  _49
REMARK   21  A    between atoms: _52  and  _54
REMARK   22  A    between atoms: _54  and  _55
REMARK   23  A    between atoms: _54  and  _57
REMARK   24  A    between atoms: _57  and  _58
REMARK   25  A    between atoms: _58  and  _59
REMARK   26  A    between atoms: _64  and  _66
REMARK   27  A    between atoms: _66  and  _67
REMARK   28  A    between atoms: _66  and  _69
REMARK   29  A    between atoms: _69  and  _70
REMARK   30  A    between atoms: _73  and  _75
REMARK   31  A    between atoms: _75  and  _76
REMARK   32  A    between atoms: _75  and  _78
REMARK   33  A    between atoms: _78  and  _79
REMARK   34  A    between atoms: _79  and  _80
REMARK   35  A    between atoms: _82  and  _84
REMARK   36  A    between atoms: _84  and  _85
REMARK   37  A    between atoms: _84  and  _87
REMARK   38  A    between atoms: _87  and  _88
REMARK   39  A    between atoms: _93  and  _95
REMARK   40  A    between atoms: _95  and  _96
REMARK   41  A    between atoms: _95  and  _98
REMARK   42  A    between atoms: _98  and  _99
REMARK   43  A    between atoms: _104  and  _106
REMARK   44  A    between atoms: _106  and  _107
REMARK   45  A    between atoms: _106  and  _109
REMARK   46  A    between atoms: _109  and  _110
REMARK   47  A    between atoms: _110  and  _111
REMARK   48  A    between atoms: _111  and  _112
REMARK   49  A    between atoms: _121  and  _123
REMARK   50  A    between atoms: _123  and  _124
REMARK   51  A    between atoms: _123  and  _126
REMARK   52  A    between atoms: _126  and  _127
REMARK   53  A    between atoms: _132  and  _134
REMARK   54  A    between atoms: _134  and  _135
REMARK   55  A    between atoms: _134  and  _137
REMARK   56  A    between atoms: _137  and  _138
REMARK   57  A    between atoms: _138  and  _139
REMARK   58  A    between atoms: _142  and  _144
REMARK   59  A    between atoms: _144  and  _145
REMARK   60  A    between atoms: _144  and  _147
REMARK   61  A    between atoms: _147  and  _148
REMARK   62  A    between atoms: _149  and  MG_450
REMARK   63  A    between atoms: _153  and  _155
REMARK   64  A    between atoms: _155  and  _156
REMARK   65  A    between atoms: _155  and  _158
REMARK   66  A    between atoms: _158  and  _159
REMARK   67  A    between atoms: _159  and  _160
REMARK   68  A    between atoms: _162  and  _164
REMARK   69  A    between atoms: _164  and  _165
REMARK   70  A    between atoms: _164  and  _167
REMARK   71  A    between atoms: _167  and  _168
REMARK   72  A    between atoms: _173  and  _175
REMARK   73  A    between atoms: _175  and  _176
REMARK   74  A    between atoms: _175  and  _178
REMARK   75  A    between atoms: _178  and  _179
REMARK   76  A    between atoms: _179  and  _180
REMARK   77  A    between atoms: _183  and  _185
REMARK   78  A    between atoms: _185  and  _186
REMARK   79  A    between atoms: _185  and  _188
REMARK   80  A    between atoms: _188  and  _189
REMARK   81  A    between atoms: _189  and  _190
REMARK   82  A    between atoms: _193  and  _195
REMARK   83  A    between atoms: _195  and  _196
REMARK   84  A    between atoms: _195  and  _198
REMARK   85  A    between atoms: _198  and  _199
REMARK   86  A    between atoms: _199  and  _200
REMARK   87  A    between atoms: _202  and  _204
REMARK   88  A    between atoms: _204  and  _205
REMARK   89  A    between atoms: _204  and  _207
REMARK   90  A    between atoms: _207  and  _208
REMARK   91  A    between atoms: _213  and  _214
REMARK   92  A    between atoms: _216  and  _218
REMARK   93  A    between atoms: _218  and  _219
REMARK   94  A    between atoms: _218  and  _221
REMARK   95  A    between atoms: _221  and  _222
REMARK   96  A    between atoms: _222  and  _223
REMARK   97  A    between atoms: _223  and  _224
REMARK   98  A    between atoms: _224  and  _225
REMARK   99  A    between atoms: _229  and  _231
REMARK  100  A    between atoms: _231  and  _232
REMARK  101  A    between atoms: _231  and  _234
REMARK  102  A    between atoms: _236  and  _238
REMARK  103  A    between atoms: _238  and  _239
REMARK  104  A    between atoms: _238  and  _241
REMARK  105  A    between atoms: _241  and  _242
REMARK  106  A    between atoms: _242  and  _243
REMARK  107  A    between atoms: _246  and  _248
REMARK  108  A    between atoms: _248  and  _249
REMARK  109  A    between atoms: _248  and  _251
REMARK  110  A    between atoms: _251  and  _252
REMARK  111  A    between atoms: _257  and  _259
REMARK  112  A    between atoms: _259  and  _260
REMARK  113  A    between atoms: _263  and  _265
REMARK  114  A    between atoms: _265  and  _266
REMARK  115  A    between atoms: _265  and  _268
REMARK  116  A    between atoms: _268  and  _269
REMARK  117  A    between atoms: _269  and  _270
REMARK  118  A    between atoms: _272  and  _274
REMARK  119  A    between atoms: _274  and  _275
REMARK  120  A    between atoms: _274  and  _277
REMARK  121  A    between atoms: _277  and  _278
REMARK  122  A    between atoms: _288  and  _290
REMARK  123  A    between atoms: _290  and  _291
REMARK  124  A    between atoms: _290  and  _293
REMARK  125  A    between atoms: _293  and  _294
REMARK  126  A    between atoms: _297  and  _299
REMARK  127  A    between atoms: _299  and  _300
REMARK  128  A    between atoms: _299  and  _302
REMARK  129  A    between atoms: _302  and  _303
REMARK  130  A    between atoms: _303  and  _304
REMARK  131  A    between atoms: _309  and  _311
REMARK  132  A    between atoms: _311  and  _312
REMARK  133  A    between atoms: _311  and  _314
REMARK  134  A    between atoms: _314  and  _315
REMARK  135  A    between atoms: _318  and  _320
REMARK  136  A    between atoms: _320  and  _321
REMARK  137  A    between atoms: _320  and  _323
REMARK  138  A    between atoms: _323  and  _324
REMARK  139  A    between atoms: _324  and  _325
REMARK  140  A    between atoms: _330  and  _332
REMARK  141  A    between atoms: _332  and  _333
REMARK  142  A    between atoms: _332  and  _335
REMARK  143  A    between atoms: _333  and  _334
REMARK  144  A    between atoms: _333  and  _342
REMARK  145  A    between atoms: _335  and  _336
REMARK  146  A    between atoms: _342  and  _344
REMARK  147  A    between atoms: _344  and  _345
REMARK  148  A    between atoms: _344  and  _347
REMARK  149  A    between atoms: _349  and  _351
REMARK  150  A    between atoms: _351  and  _352
REMARK  151  A    between atoms: _351  and  _354
REMARK  152  A    between atoms: _354  and  _355
REMARK  153  A    between atoms: _355  and  _356
REMARK  154  A    between atoms: _358  and  _360
REMARK  155  A    between atoms: _360  and  _361
REMARK  156  A    between atoms: _360  and  _363
REMARK  157  A    between atoms: _363  and  _364
REMARK  158  A    between atoms: _369  and  _371
REMARK  159  A    between atoms: _371  and  _372
REMARK  160  A    between atoms: _374  and  _376
REMARK  161  A    between atoms: _376  and  _377
REMARK  162  A    between atoms: _376  and  _379
REMARK  163  A    between atoms: _382  and  _384
REMARK  164  A    between atoms: _384  and  _385
REMARK  165  A    between atoms: _384  and  _387
REMARK  166  A    between atoms: _387  and  _388
REMARK  167  A    between atoms: _391  and  _393
REMARK  168  A    between atoms: _393  and  _394
REMARK  169  A    between atoms: _393  and  _396
REMARK  170  A    between atoms: _396  and  _397
REMARK  171  A    between atoms: _399  and  _401
REMARK  172  A    between atoms: _401  and  _402
REMARK  173  A    between atoms: _401  and  _404
REMARK  174  A    between atoms: _404  and  _405
REMARK  175  A    between atoms: _415  and  _417
REMARK  176  A    between atoms: _417  and  _418
REMARK  177  A    between atoms: _417  and  _420
REMARK  178  A    between atoms: _420  and  _421
REMARK  179  A    between atoms: _423  and  _425
REMARK  180  A    between atoms: _425  and  _426
REMARK  181  A    between atoms: _425  and  _428
REMARK  182  A    between atoms: _428  and  _429
REMARK  183  A    between atoms: _429  and  _430
REMARK  184  A    between atoms: _433  and  _435
REMARK  185  A    between atoms: _435  and  _436
REMARK  186  A    between atoms: _435  and  _438
REMARK  187  A    between atoms: _438  and  _439
REMARK  188  A    between atoms: _439  and  _440
REMARK  189  A    between atoms: _440  and  _441
REMARK                            x       y       z     vdW  Elec       q    Type
REMARK                         _______ _______ _______ _____ _____    ______ ____
ROOT
ATOM      1  CA  THR A   2     -14.860 -38.673 -27.240  0.00  0.00    +0.176 C 
ENDROOT
BRANCH   1   3
ATOM      2  C   TYR A   1     -14.134 -39.963 -29.166  0.00  0.00    +0.239 C 
ATOM      3  N   THR A   2     -13.874 -39.452 -27.968  0.00  0.00    -0.295 N 
ATOM      4  H   THR A   2     -12.940 -39.614 -27.540  0.00  0.00    +0.150 HD
ATOM      5  O   TYR A   1     -15.245 -39.936 -29.680  0.00  0.00    -0.274 OA
BRANCH   2   6
ATOM      6  CA  TYR A   1     -12.939 -40.560 -29.903  0.00  0.00    +0.149 C 
BRANCH   6   7
ATOM      7  N   TYR A   1     -12.939 -42.008 -29.940  0.00  0.00    -0.238 NA
ATOM      8  H   TYR A   1     -13.566 -42.525 -30.589  0.00  0.00    +0.142 HD
ENDBRANCH   6   7
BRANCH   6   9
ATOM      9  CB  TYR A   1     -12.780 -39.884 -31.268  0.00  0.00    +0.053 C 
BRANCH   9  10
ATOM     10  CG  TYR A   1     -12.933 -38.395 -31.072  0.00  0.00    -0.020 A 
ATOM     11  CD2 TYR A   1     -12.059 -37.702 -30.225  0.00  0.00    -0.001 A 
ATOM     12  CE2 TYR A   1     -12.212 -36.362 -29.985  0.00  0.00    +0.036 A 
ATOM     13  CZ  TYR A   1     -13.259 -35.679 -30.576  0.00  0.00    +0.134 A 
ATOM     14  CE1 TYR A   1     -14.154 -36.339 -31.408  0.00  0.00    +0.036 A 
ATOM     15  CD1 TYR A   1     -13.995 -37.695 -31.642  0.00  0.00    -0.001 A 
BRANCH  13  16
ATOM     16  OH  TYR A   1     -13.402 -34.336 -30.329  0.00  0.00    -0.506 OA
ATOM     17  HH  TYR A   1     -12.682 -34.035 -29.720  0.00  0.00    +0.292 HD
ENDBRANCH  13  16
ENDBRANCH   9  10
ENDBRANCH   6   9
ENDBRANCH   2   6
ENDBRANCH   1   3
BRANCH   1  18
ATOM     18  C   THR A   2     -14.226 -37.377 -26.713  0.00  0.00    +0.243 C 
ATOM     19  O   THR A   2     -13.038 -37.341 -26.371  0.00  0.00    -0.273 OA
ATOM     20  N   ASN A   3     -15.027 -36.316 -26.678  0.00  0.00    -0.297 N 
ATOM     21  H   ASN A   3     -16.031 -36.437 -26.922  0.00  0.00    +0.150 HD
BRANCH  20  22
ATOM     22  CA  ASN A   3     -14.547 -34.989 -26.310  0.00  0.00    +0.158 C 
BRANCH  22  23
ATOM     23  C   ASN A   3     -14.611 -34.789 -24.804  0.00  0.00    +0.241 C 
ATOM     24  O   ASN A   3     -13.590 -34.878 -24.123  0.00  0.00    -0.273 OA
ATOM     25  N   VAL A   4     -15.814 -34.527 -24.297  0.00  0.00    -0.298 N 
ATOM     26  H   VAL A   4     -16.634 -34.494 -24.935  0.00  0.00    +0.150 HD
BRANCH  25  27
ATOM     27  CA  VAL A   4     -16.014 -34.286 -22.881  0.00  0.00    +0.137 C 
BRANCH  27  28
ATOM     28  CB  VAL A   4     -17.077 -33.183 -22.629  0.00  0.00    +0.026 C 
ATOM     29  CG2 VAL A   4     -17.366 -33.040 -21.142  0.00  0.00    +0.002 C 
ATOM     30  CG1 VAL A   4     -16.608 -31.858 -23.205  0.00  0.00    +0.002 C 
ENDBRANCH  27  28
BRANCH  27  31
ATOM     31  C   VAL A   4     -16.366 -35.568 -22.129  0.00  0.00    +0.227 C 
ATOM     32  O   VAL A   4     -15.684 -35.925 -21.165  0.00  0.00    -0.286 OA
ENDBRANCH  27  31
ENDBRANCH  25  27
ENDBRANCH  22  23
BRANCH  22  33
ATOM     33  CB  ASN A   3     -15.347 -33.897 -27.043  0.00  0.00    +0.114 C 
BRANCH  33  34
ATOM     34  CG  ASN A   3     -14.943 -32.479 -26.628  0.00  0.00    +0.222 C 
ATOM     35  OD1 ASN A   3     -14.078 -32.279 -25.776  0.00  0.00    -0.275 OA
ATOM     36  ND2 ASN A   3     -15.585 -31.492 -27.228  0.00  0.00    -0.329 N 
ATOM     37 HD21 ASN A   3     -15.365 -30.505 -26.985  0.00  0.00    +0.145 HD
ATOM     38 HD22 ASN A   3     -16.310 -31.702 -27.943  0.00  0.00    +0.145 HD
ENDBRANCH  33  34
ENDBRANCH  22  33
ENDBRANCH  20  22
ENDBRANCH   1  18
BRANCH   1  39
ATOM     39  CB  THR A   2     -15.556 -39.497 -26.130  0.00  0.00    +0.137 C 
ATOM     40  CG2 THR A   2     -14.536 -40.187 -25.214  0.00  0.00    +0.034 C 
BRANCH  39  41
ATOM     41  OG1 THR A   2     -16.398 -38.637 -25.354  0.00  0.00    -0.382 OA
ATOM     42  HG1 THR A   2     -17.083 -38.229 -25.942  0.00  0.00    +0.210 HD
ENDBRANCH  39  41
ENDBRANCH   1  39
TORSDOF 16
REMARK  Name = ../refined-set-2016/3t0b/3t0b_pocket.pdb
REMARK  189 active torsions:
REMARK  status: ('A' for Active; 'I' for Inactive)
REMARK    1  A    between atoms: _1  and  _3
REMARK    2  A    between atoms: _3  and  _4
REMARK    3  A    between atoms: _3  and  _6
REMARK    4  A    between atoms: _6  and  _7
REMARK    5  A    between atoms: _12  and  _13
REMARK    6  A    between atoms: _15  and  _17
REMARK    7  A    between atoms: _17  and  _18
REMARK    8  A    between atoms: _17  and  _20
REMARK    9  A    between atoms: _20  and  _21
REMARK   10  A    between atoms: _24  and  _26
REMARK   11  A    between atoms: _26  and  _27
REMARK   12  A    between atoms: _26  and  _29
REMARK   13  A    between atoms: _29  and  _30
REMARK   14  A    between atoms: _35  and  _37
REMARK   15  A    between atoms: _37  and  _38
REMARK   16  A    between atoms: _37  and  _40
REMARK   17  A    between atoms: _43  and  _45
REMARK   18  A    between atoms: _45  and  _46
REMARK   19  A    between atoms: _45  and  _48
REMARK   20  A    between atoms: _48  and  _49
REMARK   21  A    between atoms: _52  and  _54
REMARK   22  A    between atoms: _54  and  _55
REMARK   23  A    between atoms: _54  and  _57
REMARK   24  A    between atoms: _57  and  _58
REMARK   25  A    between atoms: _58  and  _59
REMARK   26  A    between atoms: _64  and  _66
REMARK   27  A    between atoms: _66  and  _67
REMARK   28  A    between atoms: _66  and  _69
REMARK   29  A    between atoms: _69  and  _70
REMARK   30  A    between atoms: _73  and  _75
REMARK   31  A    between atoms: _75  and  _76
REMARK   32  A    between atoms: _75  and  _78
REMARK   33  A    between atoms: _78  and  _79
REMARK   34  A    between atoms: _79  and  _80
REMARK   35  A    between atoms: _82  and  _84
REMARK   36  A    between atoms: _84  and  _85
REMARK   37  A    between atoms: _84  and  _87
REMARK   38  A    between atoms: _87  and  _88
REMARK   39  A    between atoms: _93  and  _95
REMARK   40  A    between atoms: _95  and  _96
REMARK   41  A    between atoms: _95  and  _98
REMARK   42  A    between atoms: _98  and  _99
REMARK   43  A    between atoms: _104  and  _106
REMARK   44  A    between atoms: _106  and  _107
REMARK   45  A    between atoms: _106  and  _109
REMARK   46  A    between atoms: _109  and  _110
REMARK   47  A    between atoms: _110  and  _111
REMARK   48  A    between atoms: _111  and  _112
REMARK   49  A    between atoms: _121  and  _123
REMARK   50  A    between atoms: _123  and  _124
REMARK   51  A    between atoms: _123  and  _126
REMARK   52  A    between atoms: _126  and  _127
REMARK   53  A    between atoms: _132  and  _134
REMARK   54  A    between atoms: _134  and  _135
REMARK   55  A    between atoms: _134  and  _137
REMARK   56  A    between atoms: _137  and  _138
REMARK   57  A    between atoms: _138  and  _139
REMARK   58  A    between atoms: _142  and  _144
REMARK   59  A    between atoms: _144  and  _145
REMARK   60  A    between atoms: _144  and  _147
REMARK   61  A    between atoms: _147  and  _148
REMARK   62  A    between atoms: _149  and  MG_450
REMARK   63  A    between atoms: _153  and  _155
REMARK   64  A    between atoms: _155  and  _156
REMARK   65  A    between atoms: _155  and  _158
REMARK   66  A    between atoms: _158  and  _159
REMARK   67  A    between atoms: _159  and  _160
REMARK   68  A    between atoms: _162  and  _164
REMARK   69  A    between atoms: _164  and  _165
REMARK   70  A    between atoms: _164  and  _167
REMARK   71  A    between atoms: _167  and  _168
REMARK   72  A    between atoms: _173  and  _175
REMARK   73  A    between atoms: _175  and  _176
REMARK   74  A    between atoms: _175  and  _178
REMARK   75  A    between atoms: _178  and  _179
REMARK   76  A    between atoms: _179  and  _180
REMARK   77  A    between atoms: _183  and  _185
REMARK   78  A    between atoms: _185  and  _186
REMARK   79  A    between atoms: _185  and  _188
REMARK   80  A    between atoms: _188  and  _189
REMARK   81  A    between atoms: _189  and  _190
REMARK   82  A    between atoms: _193  and  _195
REMARK   83  A    between atoms: _195  and  _196
REMARK   84  A    between atoms: _195  and  _198
REMARK   85  A    between atoms: _198  and  _199
REMARK   86  A    between atoms: _199  and  _200
REMARK   87  A    between atoms: _202  and  _204
REMARK   88  A    between atoms: _204  and  _205
REMARK   89  A    between atoms: _204  and  _207
REMARK   90  A    between atoms: _207  and  _208
REMARK   91  A    between atoms: _213  and  _214
REMARK   92  A    between atoms: _216  and  _218
REMARK   93  A    between atoms: _218  and  _219
REMARK   94  A    between atoms: _218  and  _221
REMARK   95  A    between atoms: _221  and  _222
REMARK   96  A    between atoms: _222  and  _223
REMARK   97  A    between atoms: _223  and  _224
REMARK   98  A    between atoms: _224  and  _225
REMARK   99  A    between atoms: _229  and  _231
REMARK  100  A    between atoms: _231  and  _232
REMARK  101  A    between atoms: _231  and  _234
REMARK  102  A    between atoms: _236  and  _238
REMARK  103  A    between atoms: _238  and  _239
REMARK  104  A    between atoms: _238  and  _241
REMARK  105  A    between atoms: _241  and  _242
REMARK  106  A    between atoms: _242  and  _243
REMARK  107  A    between atoms: _246  and  _248
REMARK  108  A    between atoms: _248  and  _249
REMARK  109  A    between atoms: _248  and  _251
REMARK  110  A    between atoms: _251  and  _252
REMARK  111  A    between atoms: _257  and  _259
REMARK  112  A    between atoms: _259  and  _260
REMARK  113  A    between atoms: _263  and  _265
REMARK  114  A    between atoms: _265  and  _266
REMARK  115  A    between atoms: _265  and  _268
REMARK  116  A    between atoms: _268  and  _269
REMARK  117  A    between atoms: _269  and  _270
REMARK  118  A    between atoms: _272  and  _274
REMARK  119  A    between atoms: _274  and  _275
REMARK  120  A    between atoms: _274  and  _277
REMARK  121  A    between atoms: _277  and  _278
REMARK  122  A    between atoms: _288  and  _290
REMARK  123  A    between atoms: _290  and  _291
REMARK  124  A    between atoms: _290  and  _293
REMARK  125  A    between atoms: _293  and  _294
REMARK  126  A    between atoms: _297  and  _299
REMARK  127  A    between atoms: _299  and  _300
REMARK  128  A    between atoms: _299  and  _302
REMARK  129  A    between atoms: _302  and  _303
REMARK  130  A    between atoms: _303  and  _304
REMARK  131  A    between atoms: _309  and  _311
REMARK  132  A    between atoms: _311  and  _312
REMARK  133  A    between atoms: _311  and  _314
REMARK  134  A    between atoms: _314  and  _315
REMARK  135  A    between atoms: _318  and  _320
REMARK  136  A    between atoms: _320  and  _321
REMARK  137  A    between atoms: _320  and  _323
REMARK  138  A    between atoms: _323  and  _324
REMARK  139  A    between atoms: _324  and  _325
REMARK  140  A    between atoms: _330  and  _332
REMARK  141  A    between atoms: _332  and  _333
REMARK  142  A    between atoms: _332  and  _335
REMARK  143  A    between atoms: _333  and  _334
REMARK  144  A    between atoms: _333  and  _342
REMARK  145  A    between atoms: _335  and  _336
REMARK  146  A    between atoms: _342  and  _344
REMARK  147  A    between atoms: _344  and  _345
REMARK  148  A    between atoms: _344  and  _347
REMARK  149  A    between atoms: _349  and  _351
REMARK  150  A    between atoms: _351  and  _352
REMARK  151  A    between atoms: _351  and  _354
REMARK  152  A    between atoms: _354  and  _355
REMARK  153  A    between atoms: _355  and  _356
REMARK  154  A    between atoms: _358  and  _360
REMARK  155  A    between atoms: _360  and  _361
REMARK  156  A    between atoms: _360  and  _363
REMARK  157  A    between atoms: _363  and  _364
REMARK  158  A    between atoms: _369  and  _371
REMARK  159  A    between atoms: _371  and  _372
REMARK  160  A    between atoms: _374  and  _376
REMARK  161  A    between atoms: _376  and  _377
REMARK  162  A    between atoms: _376  and  _379
REMARK  163  A    between atoms: _382  and  _384
REMARK  164  A    between atoms: _384  and  _385
REMARK  165  A    between atoms: _384  and  _387
REMARK  166  A    between atoms: _387  and  _388
REMARK  167  A    between atoms: _391  and  _393
REMARK  168  A    between atoms: _393  and  _394
REMARK  169  A    between atoms: _393  and  _396
REMARK  170  A    between atoms: _396  and  _397
REMARK  171  A    between atoms: _399  and  _401
REMARK  172  A    between atoms: _401  and  _402
REMARK  173  A    between atoms: _401  and  _404
REMARK  174  A    between atoms: _404  and  _405
REMARK  175  A    between atoms: _415  and  _417
REMARK  176  A    between atoms: _417  and  _418
REMARK  177  A    between atoms: _417  and  _420
REMARK  178  A    between atoms: _420  and  _421
REMARK  179  A    between atoms: _423  and  _425
REMARK  180  A    between atoms: _425  and  _426
REMARK  181  A    between atoms: _425  and  _428
REMARK  182  A    between atoms: _428  and  _429
REMARK  183  A    between atoms: _429  and  _430
REMARK  184  A    between atoms: _433  and  _435
REMARK  185  A    between atoms: _435  and  _436
REMARK  186  A    between atoms: _435  and  _438
REMARK  187  A    between atoms: _438  and  _439
REMARK  188  A    between atoms: _439  and  _440
REMARK  189  A    between atoms: _440  and  _441
REMARK                            x       y       z     vdW  Elec       q    Type
REMARK                         _______ _______ _______ _____ _____    ______ ____
ROOT
ATOM      1  C   GLN A   2      -9.218 -35.009 -24.061  0.00  0.00    +0.241 C 
ATOM      2  O   GLN A   2      -9.472 -36.186 -24.347  0.00  0.00    -0.273 OA
ATOM      3  N   ASP A   3      -9.641 -33.966 -24.771  0.00  0.00    -0.297 N 
ATOM      4  H   ASP A   3      -9.443 -33.010 -24.412  0.00  0.00    +0.150 HD
ENDROOT
BRANCH   3   5
ATOM      5  CA  ASP A   3     -10.367 -34.097 -26.026  0.00  0.00    +0.160 C 
BRANCH   5   6
ATOM      6  C   ASP A   3      -9.446 -34.608 -27.144  0.00  0.00    +0.241 C 
ATOM      7  N   MET A   4      -9.339 -35.930 -27.216  0.00  0.00    -0.298 N 
ATOM      8  H   MET A   4      -9.914 -36.513 -26.575  0.00  0.00    +0.150 HD
ATOM      9  O   ASP A   3      -8.848 -33.832 -27.913  0.00  0.00    -0.273 OA
BRANCH   7  10
ATOM     10  CA  MET A   4      -8.449 -36.597 -28.156  0.00  0.00    +0.138 C 
BRANCH  10  11
ATOM     11  C   MET A   4      -8.803 -38.076 -28.201  0.00  0.00    +0.227 C 
ATOM     12  O   MET A   4      -9.594 -38.553 -27.378  0.00  0.00    -0.286 OA
ENDBRANCH  10  11
BRANCH  10  13
ATOM     13  CB  MET A   4      -6.979 -36.420 -27.740  0.00  0.00    +0.039 C 
BRANCH  13  14
ATOM     14  CG  MET A   4      -6.600 -37.121 -26.440  0.00  0.00    +0.060 C 
BRANCH  14  15
ATOM     15  SD  MET A   4      -4.926 -36.710 -25.888  0.00  0.00    -0.139 S 
ATOM     16  CE  MET A   4      -4.571 -38.115 -24.844  0.00  0.00    +0.069 C 
ENDBRANCH  14  15
ENDBRANCH  13  14
ENDBRANCH  10  13
ENDBRANCH   7  10
ENDBRANCH   5   6
BRANCH   5  17
ATOM     17  CB  ASP A   3     -10.975 -32.752 -26.391  0.00  0.00    +0.143 C 
BRANCH  17  18
ATOM     18  CG  ASP A   3     -11.703 -32.777 -27.709  0.00  0.00    +0.367 C 
ATOM     19  OD2 ASP A   3     -12.081 -33.869 -28.180  0.00  0.00    -0.246 OA
ATOM     20  OD1 ASP A   3     -11.909 -31.687 -28.267  0.00  0.00    -0.246 OA
ENDBRANCH  17  18
ENDBRANCH   5  17
ENDBRANCH   3   5
BRANCH   1  21
ATOM     21  CA  GLN A   2      -8.394 -34.663 -22.829  0.00  0.00    +0.149 C 
BRANCH  21  24
ATOM     22  C   ASP A   1      -9.859 -35.702 -21.169  0.00  0.00    +0.239 C 
ATOM     23  O   ASP A   1     -10.828 -34.989 -21.482  0.00  0.00    -0.274 OA
ATOM     24  N   GLN A   2      -8.661 -35.595 -21.739  0.00  0.00    -0.297 N 
ATOM     25  H   GLN A   2      -7.887 -36.198 -21.395  0.00  0.00    +0.150 HD
BRANCH  22  26
ATOM     26  CA  ASP A   1      -9.987 -36.792 -20.090  0.00  0.00    +0.156 C 
BRANCH  26  27
ATOM     27  N   ASP A   1      -8.802 -36.934 -19.233  0.00  0.00    -0.238 NA
ATOM     28  H   ASP A   1      -8.656 -36.255 -18.459  0.00  0.00    +0.142 HD
ENDBRANCH  26  27
BRANCH  26  29
ATOM     29  CB  ASP A   1     -11.232 -36.547 -19.240  0.00  0.00    +0.140 C 
BRANCH  29  30
ATOM     30  CG  ASP A   1     -12.514 -36.687 -20.032  0.00  0.00    +0.367 C 
ATOM     31  OD2 ASP A   1     -13.377 -35.804 -19.863  0.00  0.00    -0.246 OA
ATOM     32  OD1 ASP A   1     -12.654 -37.667 -20.815  0.00  0.00    -0.246 OA
ENDBRANCH  29  30
ENDBRANCH  26  29
ENDBRANCH  22  26
ENDBRANCH  21  24
BRANCH  21  33
ATOM     33  CB  GLN A   2      -6.908 -34.661 -23.184  0.00  0.00    +0.039 C 
BRANCH  33  34
ATOM     34  CG  GLN A   2      -6.022 -34.017 -22.133  0.00  0.00    +0.087 C 
BRANCH  34  35
ATOM     35  CD  GLN A   2      -5.529 -34.981 -21.059  0.00  0.00    +0.219 C 
ATOM     36  NE2 GLN A   2      -4.584 -34.512 -20.243  0.00  0.00    -0.329 N 
ATOM     37 HE21 GLN A   2      -4.200 -35.117 -19.489  0.00  0.00    +0.145 HD
ATOM     38 HE22 GLN A   2      -4.231 -33.541 -20.360  0.00  0.00    +0.145 HD
ATOM     39  OE1 GLN A   2      -5.983 -36.126 -20.963  0.00  0.00    -0.275 OA
ENDBRANCH  34  35
ENDBRANCH  33  34
ENDBRANCH  21  33
ENDBRANCH   1  21
TORSDOF 18
REMARK  Name = ../refined-set-2016/3t0b/3t0b_pocket.pdb
REMARK  189 active torsions:
REMARK  status: ('A' for Active; 'I' for Inactive)
REMARK    1  A    between atoms: _1  and  _3
REMARK    2  A    between atoms: _3  and  _4
REMARK    3  A    between atoms: _3  and  _6
REMARK    4  A    between atoms: _6  and  _7
REMARK    5  A    between atoms: _12  and  _13
REMARK    6  A    between atoms: _15  and  _17
REMARK    7  A    between atoms: _17  and  _18
REMARK    8  A    between atoms: _17  and  _20
REMARK    9  A    between atoms: _20  and  _21
REMARK   10  A    between atoms: _24  and  _26
REMARK   11  A    between atoms: _26  and  _27
REMARK   12  A    between atoms: _26  and  _29
REMARK   13  A    between atoms: _29  and  _30
REMARK   14  A    between atoms: _35  and  _37
REMARK   15  A    between atoms: _37  and  _38
REMARK   16  A    between atoms: _37  and  _40
REMARK   17  A    between atoms: _43  and  _45
REMARK   18  A    between atoms: _45  and  _46
REMARK   19  A    between atoms: _45  and  _48
REMARK   20  A    between atoms: _48  and  _49
REMARK   21  A    between atoms: _52  and  _54
REMARK   22  A    between atoms: _54  and  _55
REMARK   23  A    between atoms: _54  and  _57
REMARK   24  A    between atoms: _57  and  _58
REMARK   25  A    between atoms: _58  and  _59
REMARK   26  A    between atoms: _64  and  _66
REMARK   27  A    between atoms: _66  and  _67
REMARK   28  A    between atoms: _66  and  _69
REMARK   29  A    between atoms: _69  and  _70
REMARK   30  A    between atoms: _73  and  _75
REMARK   31  A    between atoms: _75  and  _76
REMARK   32  A    between atoms: _75  and  _78
REMARK   33  A    between atoms: _78  and  _79
REMARK   34  A    between atoms: _79  and  _80
REMARK   35  A    between atoms: _82  and  _84
REMARK   36  A    between atoms: _84  and  _85
REMARK   37  A    between atoms: _84  and  _87
REMARK   38  A    between atoms: _87  and  _88
REMARK   39  A    between atoms: _93  and  _95
REMARK   40  A    between atoms: _95  and  _96
REMARK   41  A    between atoms: _95  and  _98
REMARK   42  A    between atoms: _98  and  _99
REMARK   43  A    between atoms: _104  and  _106
REMARK   44  A    between atoms: _106  and  _107
REMARK   45  A    between atoms: _106  and  _109
REMARK   46  A    between atoms: _109  and  _110
REMARK   47  A    between atoms: _110  and  _111
REMARK   48  A    between atoms: _111  and  _112
REMARK   49  A    between atoms: _121  and  _123
REMARK   50  A    between atoms: _123  and  _124
REMARK   51  A    between atoms: _123  and  _126
REMARK   52  A    between atoms: _126  and  _127
REMARK   53  A    between atoms: _132  and  _134
REMARK   54  A    between atoms: _134  and  _135
REMARK   55  A    between atoms: _134  and  _137
REMARK   56  A    between atoms: _137  and  _138
REMARK   57  A    between atoms: _138  and  _139
REMARK   58  A    between atoms: _142  and  _144
REMARK   59  A    between atoms: _144  and  _145
REMARK   60  A    between atoms: _144  and  _147
REMARK   61  A    between atoms: _147  and  _148
REMARK   62  A    between atoms: _149  and  MG_450
REMARK   63  A    between atoms: _153  and  _155
REMARK   64  A    between atoms: _155  and  _156
REMARK   65  A    between atoms: _155  and  _158
REMARK   66  A    between atoms: _158  and  _159
REMARK   67  A    between atoms: _159  and  _160
REMARK   68  A    between atoms: _162  and  _164
REMARK   69  A    between atoms: _164  and  _165
REMARK   70  A    between atoms: _164  and  _167
REMARK   71  A    between atoms: _167  and  _168
REMARK   72  A    between atoms: _173  and  _175
REMARK   73  A    between atoms: _175  and  _176
REMARK   74  A    between atoms: _175  and  _178
REMARK   75  A    between atoms: _178  and  _179
REMARK   76  A    between atoms: _179  and  _180
REMARK   77  A    between atoms: _183  and  _185
REMARK   78  A    between atoms: _185  and  _186
REMARK   79  A    between atoms: _185  and  _188
REMARK   80  A    between atoms: _188  and  _189
REMARK   81  A    between atoms: _189  and  _190
REMARK   82  A    between atoms: _193  and  _195
REMARK   83  A    between atoms: _195  and  _196
REMARK   84  A    between atoms: _195  and  _198
REMARK   85  A    between atoms: _198  and  _199
REMARK   86  A    between atoms: _199  and  _200
REMARK   87  A    between atoms: _202  and  _204
REMARK   88  A    between atoms: _204  and  _205
REMARK   89  A    between atoms: _204  and  _207
REMARK   90  A    between atoms: _207  and  _208
REMARK   91  A    between atoms: _213  and  _214
REMARK   92  A    between atoms: _216  and  _218
REMARK   93  A    between atoms: _218  and  _219
REMARK   94  A    between atoms: _218  and  _221
REMARK   95  A    between atoms: _221  and  _222
REMARK   96  A    between atoms: _222  and  _223
REMARK   97  A    between atoms: _223  and  _224
REMARK   98  A    between atoms: _224  and  _225
REMARK   99  A    between atoms: _229  and  _231
REMARK  100  A    between atoms: _231  and  _232
REMARK  101  A    between atoms: _231  and  _234
REMARK  102  A    between atoms: _236  and  _238
REMARK  103  A    between atoms: _238  and  _239
REMARK  104  A    between atoms: _238  and  _241
REMARK  105  A    between atoms: _241  and  _242
REMARK  106  A    between atoms: _242  and  _243
REMARK  107  A    between atoms: _246  and  _248
REMARK  108  A    between atoms: _248  and  _249
REMARK  109  A    between atoms: _248  and  _251
REMARK  110  A    between atoms: _251  and  _252
REMARK  111  A    between atoms: _257  and  _259
REMARK  112  A    between atoms: _259  and  _260
REMARK  113  A    between atoms: _263  and  _265
REMARK  114  A    between atoms: _265  and  _266
REMARK  115  A    between atoms: _265  and  _268
REMARK  116  A    between atoms: _268  and  _269
REMARK  117  A    between atoms: _269  and  _270
REMARK  118  A    between atoms: _272  and  _274
REMARK  119  A    between atoms: _274  and  _275
REMARK  120  A    between atoms: _274  and  _277
REMARK  121  A    between atoms: _277  and  _278
REMARK  122  A    between atoms: _288  and  _290
REMARK  123  A    between atoms: _290  and  _291
REMARK  124  A    between atoms: _290  and  _293
REMARK  125  A    between atoms: _293  and  _294
REMARK  126  A    between atoms: _297  and  _299
REMARK  127  A    between atoms: _299  and  _300
REMARK  128  A    between atoms: _299  and  _302
REMARK  129  A    between atoms: _302  and  _303
REMARK  130  A    between atoms: _303  and  _304
REMARK  131  A    between atoms: _309  and  _311
REMARK  132  A    between atoms: _311  and  _312
REMARK  133  A    between atoms: _311  and  _314
REMARK  134  A    between atoms: _314  and  _315
REMARK  135  A    between atoms: _318  and  _320
REMARK  136  A    between atoms: _320  and  _321
REMARK  137  A    between atoms: _320  and  _323
REMARK  138  A    between atoms: _323  and  _324
REMARK  139  A    between atoms: _324  and  _325
REMARK  140  A    between atoms: _330  and  _332
REMARK  141  A    between atoms: _332  and  _333
REMARK  142  A    between atoms: _332  and  _335
REMARK  143  A    between atoms: _333  and  _334
REMARK  144  A    between atoms: _333  and  _342
REMARK  145  A    between atoms: _335  and  _336
REMARK  146  A    between atoms: _342  and  _344
REMARK  147  A    between atoms: _344  and  _345
REMARK  148  A    between atoms: _344  and  _347
REMARK  149  A    between atoms: _349  and  _351
REMARK  150  A    between atoms: _351  and  _352
REMARK  151  A    between atoms: _351  and  _354
REMARK  152  A    between atoms: _354  and  _355
REMARK  153  A    between atoms: _355  and  _356
REMARK  154  A    between atoms: _358  and  _360
REMARK  155  A    between atoms: _360  and  _361
REMARK  156  A    between atoms: _360  and  _363
REMARK  157  A    between atoms: _363  and  _364
REMARK  158  A    between atoms: _369  and  _371
REMARK  159  A    between atoms: _371  and  _372
REMARK  160  A    between atoms: _374  and  _376
REMARK  161  A    between atoms: _376  and  _377
REMARK  162  A    between atoms: _376  and  _379
REMARK  163  A    between atoms: _382  and  _384
REMARK  164  A    between atoms: _384  and  _385
REMARK  165  A    between atoms: _384  and  _387
REMARK  166  A    between atoms: _387  and  _388
REMARK  167  A    between atoms: _391  and  _393
REMARK  168  A    between atoms: _393  and  _394
REMARK  169  A    between atoms: _393  and  _396
REMARK  170  A    between atoms: _396  and  _397
REMARK  171  A    between atoms: _399  and  _401
REMARK  172  A    between atoms: _401  and  _402
REMARK  173  A    between atoms: _401  and  _404
REMARK  174  A    between atoms: _404  and  _405
REMARK  175  A    between atoms: _415  and  _417
REMARK  176  A    between atoms: _417  and  _418
REMARK  177  A    between atoms: _417  and  _420
REMARK  178  A    between atoms: _420  and  _421
REMARK  179  A    between atoms: _423  and  _425
REMARK  180  A    between atoms: _425  and  _426
REMARK  181  A    between atoms: _425  and  _428
REMARK  182  A    between atoms: _428  and  _429
REMARK  183  A    between atoms: _429  and  _430
REMARK  184  A    between atoms: _433  and  _435
REMARK  185  A    between atoms: _435  and  _436
REMARK  186  A    between atoms: _435  and  _438
REMARK  187  A    between atoms: _438  and  _439
REMARK  188  A    between atoms: _439  and  _440
REMARK  189  A    between atoms: _440  and  _441
REMARK                            x       y       z     vdW  Elec       q    Type
REMARK                         _______ _______ _______ _____ _____    ______ ____
ROOT
ATOM      1  CB  ASN A   1      -3.400 -25.806 -28.709  0.00  0.00    +0.110 C 
ENDROOT
BRANCH   1   2
ATOM      2  CG  ASN A   1      -3.787 -24.872 -27.591  0.00  0.00    +0.221 C 
ATOM      3  OD1 ASN A   1      -3.648 -25.212 -26.421  0.00  0.00    -0.275 OA
ATOM      4  ND2 ASN A   1      -4.322 -23.703 -27.942  0.00  0.00    -0.329 N 
ATOM      5 HD21 ASN A   1      -4.641 -23.037 -27.210  0.00  0.00    +0.145 HD
ATOM      6 HD22 ASN A   1      -4.420 -23.457 -28.948  0.00  0.00    +0.145 HD
ENDBRANCH   1   2
BRANCH   1   7
ATOM      7  CA  ASN A   1      -1.998 -25.555 -29.238  0.00  0.00    +0.142 C 
BRANCH   7   8
ATOM      8  N   ASN A   1      -1.949 -24.336 -30.028  0.00  0.00    -0.239 NA
ATOM      9  H   ASN A   1      -2.833 -23.939 -30.407  0.00  0.00    +0.142 HD
ENDBRANCH   7   8
BRANCH   7  10
ATOM     10  C   ASN A   1      -1.629 -26.713 -30.147  0.00  0.00    +0.225 C 
ATOM     11  O   ASN A   1      -2.040 -26.741 -31.316  0.00  0.00    -0.287 OA
ENDBRANCH   7  10
ENDBRANCH   1   7
TORSDOF 4
REMARK  Name = ../refined-set-2016/3t0b/3t0b_pocket.pdb
REMARK  189 active torsions:
REMARK  status: ('A' for Active; 'I' for Inactive)
REMARK    1  A    between atoms: _1  and  _3
REMARK    2  A    between atoms: _3  and  _4
REMARK    3  A    between atoms: _3  and  _6
REMARK    4  A    between atoms: _6  and  _7
REMARK    5  A    between atoms: _12  and  _13
REMARK    6  A    between atoms: _15  and  _17
REMARK    7  A    between atoms: _17  and  _18
REMARK    8  A    between atoms: _17  and  _20
REMARK    9  A    between atoms: _20  and  _21
REMARK   10  A    between atoms: _24  and  _26
REMARK   11  A    between atoms: _26  and  _27
REMARK   12  A    between atoms: _26  and  _29
REMARK   13  A    between atoms: _29  and  _30
REMARK   14  A    between atoms: _35  and  _37
REMARK   15  A    between atoms: _37  and  _38
REMARK   16  A    between atoms: _37  and  _40
REMARK   17  A    between atoms: _43  and  _45
REMARK   18  A    between atoms: _45  and  _46
REMARK   19  A    between atoms: _45  and  _48
REMARK   20  A    between atoms: _48  and  _49
REMARK   21  A    between atoms: _52  and  _54
REMARK   22  A    between atoms: _54  and  _55
REMARK   23  A    between atoms: _54  and  _57
REMARK   24  A    between atoms: _57  and  _58
REMARK   25  A    between atoms: _58  and  _59
REMARK   26  A    between atoms: _64  and  _66
REMARK   27  A    between atoms: _66  and  _67
REMARK   28  A    between atoms: _66  and  _69
REMARK   29  A    between atoms: _69  and  _70
REMARK   30  A    between atoms: _73  and  _75
REMARK   31  A    between atoms: _75  and  _76
REMARK   32  A    between atoms: _75  and  _78
REMARK   33  A    between atoms: _78  and  _79
REMARK   34  A    between atoms: _79  and  _80
REMARK   35  A    between atoms: _82  and  _84
REMARK   36  A    between atoms: _84  and  _85
REMARK   37  A    between atoms: _84  and  _87
REMARK   38  A    between atoms: _87  and  _88
REMARK   39  A    between atoms: _93  and  _95
REMARK   40  A    between atoms: _95  and  _96
REMARK   41  A    between atoms: _95  and  _98
REMARK   42  A    between atoms: _98  and  _99
REMARK   43  A    between atoms: _104  and  _106
REMARK   44  A    between atoms: _106  and  _107
REMARK   45  A    between atoms: _106  and  _109
REMARK   46  A    between atoms: _109  and  _110
REMARK   47  A    between atoms: _110  and  _111
REMARK   48  A    between atoms: _111  and  _112
REMARK   49  A    between atoms: _121  and  _123
REMARK   50  A    between atoms: _123  and  _124
REMARK   51  A    between atoms: _123  and  _126
REMARK   52  A    between atoms: _126  and  _127
REMARK   53  A    between atoms: _132  and  _134
REMARK   54  A    between atoms: _134  and  _135
REMARK   55  A    between atoms: _134  and  _137
REMARK   56  A    between atoms: _137  and  _138
REMARK   57  A    between atoms: _138  and  _139
REMARK   58  A    between atoms: _142  and  _144
REMARK   59  A    between atoms: _144  and  _145
REMARK   60  A    between atoms: _144  and  _147
REMARK   61  A    between atoms: _147  and  _148
REMARK   62  A    between atoms: _149  and  MG_450
REMARK   63  A    between atoms: _153  and  _155
REMARK   64  A    between atoms: _155  and  _156
REMARK   65  A    between atoms: _155  and  _158
REMARK   66  A    between atoms: _158  and  _159
REMARK   67  A    between atoms: _159  and  _160
REMARK   68  A    between atoms: _162  and  _164
REMARK   69  A    between atoms: _164  and  _165
REMARK   70  A    between atoms: _164  and  _167
REMARK   71  A    between atoms: _167  and  _168
REMARK   72  A    between atoms: _173  and  _175
REMARK   73  A    between atoms: _175  and  _176
REMARK   74  A    between atoms: _175  and  _178
REMARK   75  A    between atoms: _178  and  _179
REMARK   76  A    between atoms: _179  and  _180
REMARK   77  A    between atoms: _183  and  _185
REMARK   78  A    between atoms: _185  and  _186
REMARK   79  A    between atoms: _185  and  _188
REMARK   80  A    between atoms: _188  and  _189
REMARK   81  A    between atoms: _189  and  _190
REMARK   82  A    between atoms: _193  and  _195
REMARK   83  A    between atoms: _195  and  _196
REMARK   84  A    between atoms: _195  and  _198
REMARK   85  A    between atoms: _198  and  _199
REMARK   86  A    between atoms: _199  and  _200
REMARK   87  A    between atoms: _202  and  _204
REMARK   88  A    between atoms: _204  and  _205
REMARK   89  A    between atoms: _204  and  _207
REMARK   90  A    between atoms: _207  and  _208
REMARK   91  A    between atoms: _213  and  _214
REMARK   92  A    between atoms: _216  and  _218
REMARK   93  A    between atoms: _218  and  _219
REMARK   94  A    between atoms: _218  and  _221
REMARK   95  A    between atoms: _221  and  _222
REMARK   96  A    between atoms: _222  and  _223
REMARK   97  A    between atoms: _223  and  _224
REMARK   98  A    between atoms: _224  and  _225
REMARK   99  A    between atoms: _229  and  _231
REMARK  100  A    between atoms: _231  and  _232
REMARK  101  A    between atoms: _231  and  _234
REMARK  102  A    between atoms: _236  and  _238
REMARK  103  A    between atoms: _238  and  _239
REMARK  104  A    between atoms: _238  and  _241
REMARK  105  A    between atoms: _241  and  _242
REMARK  106  A    between atoms: _242  and  _243
REMARK  107  A    between atoms: _246  and  _248
REMARK  108  A    between atoms: _248  and  _249
REMARK  109  A    between atoms: _248  and  _251
REMARK  110  A    between atoms: _251  and  _252
REMARK  111  A    between atoms: _257  and  _259
REMARK  112  A    between atoms: _259  and  _260
REMARK  113  A    between atoms: _263  and  _265
REMARK  114  A    between atoms: _265  and  _266
REMARK  115  A    between atoms: _265  and  _268
REMARK  116  A    between atoms: _268  and  _269
REMARK  117  A    between atoms: _269  and  _270
REMARK  118  A    between atoms: _272  and  _274
REMARK  119  A    between atoms: _274  and  _275
REMARK  120  A    between atoms: _274  and  _277
REMARK  121  A    between atoms: _277  and  _278
REMARK  122  A    between atoms: _288  and  _290
REMARK  123  A    between atoms: _290  and  _291
REMARK  124  A    between atoms: _290  and  _293
REMARK  125  A    between atoms: _293  and  _294
REMARK  126  A    between atoms: _297  and  _299
REMARK  127  A    between atoms: _299  and  _300
REMARK  128  A    between atoms: _299  and  _302
REMARK  129  A    between atoms: _302  and  _303
REMARK  130  A    between atoms: _303  and  _304
REMARK  131  A    between atoms: _309  and  _311
REMARK  132  A    between atoms: _311  and  _312
REMARK  133  A    between atoms: _311  and  _314
REMARK  134  A    between atoms: _314  and  _315
REMARK  135  A    between atoms: _318  and  _320
REMARK  136  A    between atoms: _320  and  _321
REMARK  137  A    between atoms: _320  and  _323
REMARK  138  A    between atoms: _323  and  _324
REMARK  139  A    between atoms: _324  and  _325
REMARK  140  A    between atoms: _330  and  _332
REMARK  141  A    between atoms: _332  and  _333
REMARK  142  A    between atoms: _332  and  _335
REMARK  143  A    between atoms: _333  and  _334
REMARK  144  A    between atoms: _333  and  _342
REMARK  145  A    between atoms: _335  and  _336
REMARK  146  A    between atoms: _342  and  _344
REMARK  147  A    between atoms: _344  and  _345
REMARK  148  A    between atoms: _344  and  _347
REMARK  149  A    between atoms: _349  and  _351
REMARK  150  A    between atoms: _351  and  _352
REMARK  151  A    between atoms: _351  and  _354
REMARK  152  A    between atoms: _354  and  _355
REMARK  153  A    between atoms: _355  and  _356
REMARK  154  A    between atoms: _358  and  _360
REMARK  155  A    between atoms: _360  and  _361
REMARK  156  A    between atoms: _360  and  _363
REMARK  157  A    between atoms: _363  and  _364
REMARK  158  A    between atoms: _369  and  _371
REMARK  159  A    between atoms: _371  and  _372
REMARK  160  A    between atoms: _374  and  _376
REMARK  161  A    between atoms: _376  and  _377
REMARK  162  A    between atoms: _376  and  _379
REMARK  163  A    between atoms: _382  and  _384
REMARK  164  A    between atoms: _384  and  _385
REMARK  165  A    between atoms: _384  and  _387
REMARK  166  A    between atoms: _387  and  _388
REMARK  167  A    between atoms: _391  and  _393
REMARK  168  A    between atoms: _393  and  _394
REMARK  169  A    between atoms: _393  and  _396
REMARK  170  A    between atoms: _396  and  _397
REMARK  171  A    between atoms: _399  and  _401
REMARK  172  A    between atoms: _401  and  _402
REMARK  173  A    between atoms: _401  and  _404
REMARK  174  A    between atoms: _404  and  _405
REMARK  175  A    between atoms: _415  and  _417
REMARK  176  A    between atoms: _417  and  _418
REMARK  177  A    between atoms: _417  and  _420
REMARK  178  A    between atoms: _420  and  _421
REMARK  179  A    between atoms: _423  and  _425
REMARK  180  A    between atoms: _425  and  _426
REMARK  181  A    between atoms: _425  and  _428
REMARK  182  A    between atoms: _428  and  _429
REMARK  183  A    between atoms: _429  and  _430
REMARK  184  A    between atoms: _433  and  _435
REMARK  185  A    between atoms: _435  and  _436
REMARK  186  A    between atoms: _435  and  _438
REMARK  187  A    between atoms: _438  and  _439
REMARK  188  A    between atoms: _439  and  _440
REMARK  189  A    between atoms: _440  and  _441
REMARK                            x       y       z     vdW  Elec       q    Type
REMARK                         _______ _______ _______ _____ _____    ______ ____
ROOT
ATOM      1  CB  HIS A   1      -2.844 -32.989 -30.031  0.00  0.00    +0.072 C 
ENDROOT
BRANCH   1   2
ATOM      2  CG  HIS A   1      -3.841 -32.813 -28.927  0.00  0.00    +0.082 A 
ATOM      3  ND1 HIS A   1      -3.784 -33.530 -27.750  0.00  0.00    -0.227 NA
ATOM      4  CE1 HIS A   1      -4.784 -33.164 -26.967  0.00  0.00    +0.199 A 
ATOM      5  NE2 HIS A   1      -5.482 -32.231 -27.591  0.00  0.00    -0.221 NA
ATOM      6  CD2 HIS A   1      -4.919 -32.001 -28.822  0.00  0.00    +0.115 A 
ENDBRANCH   1   2
BRANCH   1   7
ATOM      7  CA  HIS A   1      -1.464 -32.395 -29.725  0.00  0.00    +0.139 C 
BRANCH   7   8
ATOM      8  N   HIS A   1      -1.367 -31.032 -30.221  0.00  0.00    -0.239 NA
ATOM      9  H   HIS A   1      -1.980 -30.742 -31.010  0.00  0.00    +0.142 HD
ENDBRANCH   7   8
BRANCH   7  10
ATOM     10  C   HIS A   1      -0.398 -33.263 -30.381  0.00  0.00    +0.224 C 
ATOM     11  O   HIS A   1       0.025 -32.997 -31.505  0.00  0.00    -0.287 OA
ENDBRANCH   7  10
ENDBRANCH   1   7
TORSDOF 4
REMARK  Name = ../refined-set-2016/3t0b/3t0b_pocket.pdb
REMARK  189 active torsions:
REMARK  status: ('A' for Active; 'I' for Inactive)
REMARK    1  A    between atoms: _1  and  _3
REMARK    2  A    between atoms: _3  and  _4
REMARK    3  A    between atoms: _3  and  _6
REMARK    4  A    between atoms: _6  and  _7
REMARK    5  A    between atoms: _12  and  _13
REMARK    6  A    between atoms: _15  and  _17
REMARK    7  A    between atoms: _17  and  _18
REMARK    8  A    between atoms: _17  and  _20
REMARK    9  A    between atoms: _20  and  _21
REMARK   10  A    between atoms: _24  and  _26
REMARK   11  A    between atoms: _26  and  _27
REMARK   12  A    between atoms: _26  and  _29
REMARK   13  A    between atoms: _29  and  _30
REMARK   14  A    between atoms: _35  and  _37
REMARK   15  A    between atoms: _37  and  _38
REMARK   16  A    between atoms: _37  and  _40
REMARK   17  A    between atoms: _43  and  _45
REMARK   18  A    between atoms: _45  and  _46
REMARK   19  A    between atoms: _45  and  _48
REMARK   20  A    between atoms: _48  and  _49
REMARK   21  A    between atoms: _52  and  _54
REMARK   22  A    between atoms: _54  and  _55
REMARK   23  A    between atoms: _54  and  _57
REMARK   24  A    between atoms: _57  and  _58
REMARK   25  A    between atoms: _58  and  _59
REMARK   26  A    between atoms: _64  and  _66
REMARK   27  A    between atoms: _66  and  _67
REMARK   28  A    between atoms: _66  and  _69
REMARK   29  A    between atoms: _69  and  _70
REMARK   30  A    between atoms: _73  and  _75
REMARK   31  A    between atoms: _75  and  _76
REMARK   32  A    between atoms: _75  and  _78
REMARK   33  A    between atoms: _78  and  _79
REMARK   34  A    between atoms: _79  and  _80
REMARK   35  A    between atoms: _82  and  _84
REMARK   36  A    between atoms: _84  and  _85
REMARK   37  A    between atoms: _84  and  _87
REMARK   38  A    between atoms: _87  and  _88
REMARK   39  A    between atoms: _93  and  _95
REMARK   40  A    between atoms: _95  and  _96
REMARK   41  A    between atoms: _95  and  _98
REMARK   42  A    between atoms: _98  and  _99
REMARK   43  A    between atoms: _104  and  _106
REMARK   44  A    between atoms: _106  and  _107
REMARK   45  A    between atoms: _106  and  _109
REMARK   46  A    between atoms: _109  and  _110
REMARK   47  A    between atoms: _110  and  _111
REMARK   48  A    between atoms: _111  and  _112
REMARK   49  A    between atoms: _121  and  _123
REMARK   50  A    between atoms: _123  and  _124
REMARK   51  A    between atoms: _123  and  _126
REMARK   52  A    between atoms: _126  and  _127
REMARK   53  A    between atoms: _132  and  _134
REMARK   54  A    between atoms: _134  and  _135
REMARK   55  A    between atoms: _134  and  _137
REMARK   56  A    between atoms: _137  and  _138
REMARK   57  A    between atoms: _138  and  _139
REMARK   58  A    between atoms: _142  and  _144
REMARK   59  A    between atoms: _144  and  _145
REMARK   60  A    between atoms: _144  and  _147
REMARK   61  A    between atoms: _147  and  _148
REMARK   62  A    between atoms: _149  and  MG_450
REMARK   63  A    between atoms: _153  and  _155
REMARK   64  A    between atoms: _155  and  _156
REMARK   65  A    between atoms: _155  and  _158
REMARK   66  A    between atoms: _158  and  _159
REMARK   67  A    between atoms: _159  and  _160
REMARK   68  A    between atoms: _162  and  _164
REMARK   69  A    between atoms: _164  and  _165
REMARK   70  A    between atoms: _164  and  _167
REMARK   71  A    between atoms: _167  and  _168
REMARK   72  A    between atoms: _173  and  _175
REMARK   73  A    between atoms: _175  and  _176
REMARK   74  A    between atoms: _175  and  _178
REMARK   75  A    between atoms: _178  and  _179
REMARK   76  A    between atoms: _179  and  _180
REMARK   77  A    between atoms: _183  and  _185
REMARK   78  A    between atoms: _185  and  _186
REMARK   79  A    between atoms: _185  and  _188
REMARK   80  A    between atoms: _188  and  _189
REMARK   81  A    between atoms: _189  and  _190
REMARK   82  A    between atoms: _193  and  _195
REMARK   83  A    between atoms: _195  and  _196
REMARK   84  A    between atoms: _195  and  _198
REMARK   85  A    between atoms: _198  and  _199
REMARK   86  A    between atoms: _199  and  _200
REMARK   87  A    between atoms: _202  and  _204
REMARK   88  A    between atoms: _204  and  _205
REMARK   89  A    between atoms: _204  and  _207
REMARK   90  A    between atoms: _207  and  _208
REMARK   91  A    between atoms: _213  and  _214
REMARK   92  A    between atoms: _216  and  _218
REMARK   93  A    between atoms: _218  and  _219
REMARK   94  A    between atoms: _218  and  _221
REMARK   95  A    between atoms: _221  and  _222
REMARK   96  A    between atoms: _222  and  _223
REMARK   97  A    between atoms: _223  and  _224
REMARK   98  A    between atoms: _224  and  _225
REMARK   99  A    between atoms: _229  and  _231
REMARK  100  A    between atoms: _231  and  _232
REMARK  101  A    between atoms: _231  and  _234
REMARK  102  A    between atoms: _236  and  _238
REMARK  103  A    between atoms: _238  and  _239
REMARK  104  A    between atoms: _238  and  _241
REMARK  105  A    between atoms: _241  and  _242
REMARK  106  A    between atoms: _242  and  _243
REMARK  107  A    between atoms: _246  and  _248
REMARK  108  A    between atoms: _248  and  _249
REMARK  109  A    between atoms: _248  and  _251
REMARK  110  A    between atoms: _251  and  _252
REMARK  111  A    between atoms: _257  and  _259
REMARK  112  A    between atoms: _259  and  _260
REMARK  113  A    between atoms: _263  and  _265
REMARK  114  A    between atoms: _265  and  _266
REMARK  115  A    between atoms: _265  and  _268
REMARK  116  A    between atoms: _268  and  _269
REMARK  117  A    between atoms: _269  and  _270
REMARK  118  A    between atoms: _272  and  _274
REMARK  119  A    between atoms: _274  and  _275
REMARK  120  A    between atoms: _274  and  _277
REMARK  121  A    between atoms: _277  and  _278
REMARK  122  A    between atoms: _288  and  _290
REMARK  123  A    between atoms: _290  and  _291
REMARK  124  A    between atoms: _290  and  _293
REMARK  125  A    between atoms: _293  and  _294
REMARK  126  A    between atoms: _297  and  _299
REMARK  127  A    between atoms: _299  and  _300
REMARK  128  A    between atoms: _299  and  _302
REMARK  129  A    between atoms: _302  and  _303
REMARK  130  A    between atoms: _303  and  _304
REMARK  131  A    between atoms: _309  and  _311
REMARK  132  A    between atoms: _311  and  _312
REMARK  133  A    between atoms: _311  and  _314
REMARK  134  A    between atoms: _314  and  _315
REMARK  135  A    between atoms: _318  and  _320
REMARK  136  A    between atoms: _320  and  _321
REMARK  137  A    between atoms: _320  and  _323
REMARK  138  A    between atoms: _323  and  _324
REMARK  139  A    between atoms: _324  and  _325
REMARK  140  A    between atoms: _330  and  _332
REMARK  141  A    between atoms: _332  and  _333
REMARK  142  A    between atoms: _332  and  _335
REMARK  143  A    between atoms: _333  and  _334
REMARK  144  A    between atoms: _333  and  _342
REMARK  145  A    between atoms: _335  and  _336
REMARK  146  A    between atoms: _342  and  _344
REMARK  147  A    between atoms: _344  and  _345
REMARK  148  A    between atoms: _344  and  _347
REMARK  149  A    between atoms: _349  and  _351
REMARK  150  A    between atoms: _351  and  _352
REMARK  151  A    between atoms: _351  and  _354
REMARK  152  A    between atoms: _354  and  _355
REMARK  153  A    between atoms: _355  and  _356
REMARK  154  A    between atoms: _358  and  _360
REMARK  155  A    between atoms: _360  and  _361
REMARK  156  A    between atoms: _360  and  _363
REMARK  157  A    between atoms: _363  and  _364
REMARK  158  A    between atoms: _369  and  _371
REMARK  159  A    between atoms: _371  and  _372
REMARK  160  A    between atoms: _374  and  _376
REMARK  161  A    between atoms: _376  and  _377
REMARK  162  A    between atoms: _376  and  _379
REMARK  163  A    between atoms: _382  and  _384
REMARK  164  A    between atoms: _384  and  _385
REMARK  165  A    between atoms: _384  and  _387
REMARK  166  A    between atoms: _387  and  _388
REMARK  167  A    between atoms: _391  and  _393
REMARK  168  A    between atoms: _393  and  _394
REMARK  169  A    between atoms: _393  and  _396
REMARK  170  A    between atoms: _396  and  _397
REMARK  171  A    between atoms: _399  and  _401
REMARK  172  A    between atoms: _401  and  _402
REMARK  173  A    between atoms: _401  and  _404
REMARK  174  A    between atoms: _404  and  _405
REMARK  175  A    between atoms: _415  and  _417
REMARK  176  A    between atoms: _417  and  _418
REMARK  177  A    between atoms: _417  and  _420
REMARK  178  A    between atoms: _420  and  _421
REMARK  179  A    between atoms: _423  and  _425
REMARK  180  A    between atoms: _425  and  _426
REMARK  181  A    between atoms: _425  and  _428
REMARK  182  A    between atoms: _428  and  _429
REMARK  183  A    between atoms: _429  and  _430
REMARK  184  A    between atoms: _433  and  _435
REMARK  185  A    between atoms: _435  and  _436
REMARK  186  A    between atoms: _435  and  _438
REMARK  187  A    between atoms: _438  and  _439
REMARK  188  A    between atoms: _439  and  _440
REMARK  189  A    between atoms: _440  and  _441
REMARK                            x       y       z     vdW  Elec       q    Type
REMARK                         _______ _______ _______ _____ _____    ______ ____
ROOT
ATOM      1  NE  ARG A   1      -2.888 -24.644 -22.730  0.00  0.00    -0.265 N 
ATOM      2  HE  ARG A   1      -2.343 -24.782 -21.855  0.00  0.00    +0.259 HD
ATOM      3  CZ  ARG A   1      -4.178 -24.987 -22.717  0.00  0.00    +0.342 C 
ATOM      4  NH2 ARG A   1      -4.726 -25.466 -21.605  0.00  0.00    -0.292 N 
ATOM      5 HH21 ARG A   1      -4.150 -25.573 -20.746  0.00  0.00    +0.255 HD
ATOM      6 HH22 ARG A   1      -5.731 -25.733 -21.594  0.00  0.00    +0.255 HD
ATOM      7  NH1 ARG A   1      -4.929 -24.846 -23.802  0.00  0.00    -0.292 N 
ATOM      8 HH11 ARG A   1      -5.933 -25.117 -23.778  0.00  0.00    +0.255 HD
ATOM      9 HH12 ARG A   1      -4.514 -24.464 -24.676  0.00  0.00    +0.255 HD
ENDROOT
BRANCH   1  10
ATOM     10  CD  ARG A   1      -2.183 -24.087 -23.889  0.00  0.00    +0.174 C 
BRANCH  10  11
ATOM     11  CG  ARG A   1      -0.994 -24.925 -24.326  0.00  0.00    +0.045 C 
BRANCH  11  12
ATOM     12  CB  ARG A   1      -0.267 -24.280 -25.510  0.00  0.00    +0.029 C 
BRANCH  12  13
ATOM     13  CA  ARG A   1       1.108 -24.881 -25.831  0.00  0.00    +0.133 C 
BRANCH  13  14
ATOM     14  N   ARG A   1       1.613 -24.375 -27.104  0.00  0.00    -0.239 NA
ATOM     15  H   ARG A   1       0.999 -24.419 -27.942  0.00  0.00    +0.142 HD
ENDBRANCH  13  14
BRANCH  13  16
ATOM     16  C   ARG A   1       1.034 -26.403 -25.900  0.00  0.00    +0.224 C 
ATOM     17  O   ARG A   1       0.477 -26.957 -26.854  0.00  0.00    -0.287 OA
ENDBRANCH  13  16
ENDBRANCH  12  13
ENDBRANCH  11  12
ENDBRANCH  10  11
ENDBRANCH   1  10
TORSDOF 6
REMARK  Name = ../refined-set-2016/3t0b/3t0b_pocket.pdb
REMARK  189 active torsions:
REMARK  status: ('A' for Active; 'I' for Inactive)
REMARK    1  A    between atoms: _1  and  _3
REMARK    2  A    between atoms: _3  and  _4
REMARK    3  A    between atoms: _3  and  _6
REMARK    4  A    between atoms: _6  and  _7
REMARK    5  A    between atoms: _12  and  _13
REMARK    6  A    between atoms: _15  and  _17
REMARK    7  A    between atoms: _17  and  _18
REMARK    8  A    between atoms: _17  and  _20
REMARK    9  A    between atoms: _20  and  _21
REMARK   10  A    between atoms: _24  and  _26
REMARK   11  A    between atoms: _26  and  _27
REMARK   12  A    between atoms: _26  and  _29
REMARK   13  A    between atoms: _29  and  _30
REMARK   14  A    between atoms: _35  and  _37
REMARK   15  A    between atoms: _37  and  _38
REMARK   16  A    between atoms: _37  and  _40
REMARK   17  A    between atoms: _43  and  _45
REMARK   18  A    between atoms: _45  and  _46
REMARK   19  A    between atoms: _45  and  _48
REMARK   20  A    between atoms: _48  and  _49
REMARK   21  A    between atoms: _52  and  _54
REMARK   22  A    between atoms: _54  and  _55
REMARK   23  A    between atoms: _54  and  _57
REMARK   24  A    between atoms: _57  and  _58
REMARK   25  A    between atoms: _58  and  _59
REMARK   26  A    between atoms: _64  and  _66
REMARK   27  A    between atoms: _66  and  _67
REMARK   28  A    between atoms: _66  and  _69
REMARK   29  A    between atoms: _69  and  _70
REMARK   30  A    between atoms: _73  and  _75
REMARK   31  A    between atoms: _75  and  _76
REMARK   32  A    between atoms: _75  and  _78
REMARK   33  A    between atoms: _78  and  _79
REMARK   34  A    between atoms: _79  and  _80
REMARK   35  A    between atoms: _82  and  _84
REMARK   36  A    between atoms: _84  and  _85
REMARK   37  A    between atoms: _84  and  _87
REMARK   38  A    between atoms: _87  and  _88
REMARK   39  A    between atoms: _93  and  _95
REMARK   40  A    between atoms: _95  and  _96
REMARK   41  A    between atoms: _95  and  _98
REMARK   42  A    between atoms: _98  and  _99
REMARK   43  A    between atoms: _104  and  _106
REMARK   44  A    between atoms: _106  and  _107
REMARK   45  A    between atoms: _106  and  _109
REMARK   46  A    between atoms: _109  and  _110
REMARK   47  A    between atoms: _110  and  _111
REMARK   48  A    between atoms: _111  and  _112
REMARK   49  A    between atoms: _121  and  _123
REMARK   50  A    between atoms: _123  and  _124
REMARK   51  A    between atoms: _123  and  _126
REMARK   52  A    between atoms: _126  and  _127
REMARK   53  A    between atoms: _132  and  _134
REMARK   54  A    between atoms: _134  and  _135
REMARK   55  A    between atoms: _134  and  _137
REMARK   56  A    between atoms: _137  and  _138
REMARK   57  A    between atoms: _138  and  _139
REMARK   58  A    between atoms: _142  and  _144
REMARK   59  A    between atoms: _144  and  _145
REMARK   60  A    between atoms: _144  and  _147
REMARK   61  A    between atoms: _147  and  _148
REMARK   62  A    between atoms: _149  and  MG_450
REMARK   63  A    between atoms: _153  and  _155
REMARK   64  A    between atoms: _155  and  _156
REMARK   65  A    between atoms: _155  and  _158
REMARK   66  A    between atoms: _158  and  _159
REMARK   67  A    between atoms: _159  and  _160
REMARK   68  A    between atoms: _162  and  _164
REMARK   69  A    between atoms: _164  and  _165
REMARK   70  A    between atoms: _164  and  _167
REMARK   71  A    between atoms: _167  and  _168
REMARK   72  A    between atoms: _173  and  _175
REMARK   73  A    between atoms: _175  and  _176
REMARK   74  A    between atoms: _175  and  _178
REMARK   75  A    between atoms: _178  and  _179
REMARK   76  A    between atoms: _179  and  _180
REMARK   77  A    between atoms: _183  and  _185
REMARK   78  A    between atoms: _185  and  _186
REMARK   79  A    between atoms: _185  and  _188
REMARK   80  A    between atoms: _188  and  _189
REMARK   81  A    between atoms: _189  and  _190
REMARK   82  A    between atoms: _193  and  _195
REMARK   83  A    between atoms: _195  and  _196
REMARK   84  A    between atoms: _195  and  _198
REMARK   85  A    between atoms: _198  and  _199
REMARK   86  A    between atoms: _199  and  _200
REMARK   87  A    between atoms: _202  and  _204
REMARK   88  A    between atoms: _204  and  _205
REMARK   89  A    between atoms: _204  and  _207
REMARK   90  A    between atoms: _207  and  _208
REMARK   91  A    between atoms: _213  and  _214
REMARK   92  A    between atoms: _216  and  _218
REMARK   93  A    between atoms: _218  and  _219
REMARK   94  A    between atoms: _218  and  _221
REMARK   95  A    between atoms: _221  and  _222
REMARK   96  A    between atoms: _222  and  _223
REMARK   97  A    between atoms: _223  and  _224
REMARK   98  A    between atoms: _224  and  _225
REMARK   99  A    between atoms: _229  and  _231
REMARK  100  A    between atoms: _231  and  _232
REMARK  101  A    between atoms: _231  and  _234
REMARK  102  A    between atoms: _236  and  _238
REMARK  103  A    between atoms: _238  and  _239
REMARK  104  A    between atoms: _238  and  _241
REMARK  105  A    between atoms: _241  and  _242
REMARK  106  A    between atoms: _242  and  _243
REMARK  107  A    between atoms: _246  and  _248
REMARK  108  A    between atoms: _248  and  _249
REMARK  109  A    between atoms: _248  and  _251
REMARK  110  A    between atoms: _251  and  _252
REMARK  111  A    between atoms: _257  and  _259
REMARK  112  A    between atoms: _259  and  _260
REMARK  113  A    between atoms: _263  and  _265
REMARK  114  A    between atoms: _265  and  _266
REMARK  115  A    between atoms: _265  and  _268
REMARK  116  A    between atoms: _268  and  _269
REMARK  117  A    between atoms: _269  and  _270
REMARK  118  A    between atoms: _272  and  _274
REMARK  119  A    between atoms: _274  and  _275
REMARK  120  A    between atoms: _274  and  _277
REMARK  121  A    between atoms: _277  and  _278
REMARK  122  A    between atoms: _288  and  _290
REMARK  123  A    between atoms: _290  and  _291
REMARK  124  A    between atoms: _290  and  _293
REMARK  125  A    between atoms: _293  and  _294
REMARK  126  A    between atoms: _297  and  _299
REMARK  127  A    between atoms: _299  and  _300
REMARK  128  A    between atoms: _299  and  _302
REMARK  129  A    between atoms: _302  and  _303
REMARK  130  A    between atoms: _303  and  _304
REMARK  131  A    between atoms: _309  and  _311
REMARK  132  A    between atoms: _311  and  _312
REMARK  133  A    between atoms: _311  and  _314
REMARK  134  A    between atoms: _314  and  _315
REMARK  135  A    between atoms: _318  and  _320
REMARK  136  A    between atoms: _320  and  _321
REMARK  137  A    between atoms: _320  and  _323
REMARK  138  A    between atoms: _323  and  _324
REMARK  139  A    between atoms: _324  and  _325
REMARK  140  A    between atoms: _330  and  _332
REMARK  141  A    between atoms: _332  and  _333
REMARK  142  A    between atoms: _332  and  _335
REMARK  143  A    between atoms: _333  and  _334
REMARK  144  A    between atoms: _333  and  _342
REMARK  145  A    between atoms: _335  and  _336
REMARK  146  A    between atoms: _342  and  _344
REMARK  147  A    between atoms: _344  and  _345
REMARK  148  A    between atoms: _344  and  _347
REMARK  149  A    between atoms: _349  and  _351
REMARK  150  A    between atoms: _351  and  _352
REMARK  151  A    between atoms: _351  and  _354
REMARK  152  A    between atoms: _354  and  _355
REMARK  153  A    between atoms: _355  and  _356
REMARK  154  A    between atoms: _358  and  _360
REMARK  155  A    between atoms: _360  and  _361
REMARK  156  A    between atoms: _360  and  _363
REMARK  157  A    between atoms: _363  and  _364
REMARK  158  A    between atoms: _369  and  _371
REMARK  159  A    between atoms: _371  and  _372
REMARK  160  A    between atoms: _374  and  _376
REMARK  161  A    between atoms: _376  and  _377
REMARK  162  A    between atoms: _376  and  _379
REMARK  163  A    between atoms: _382  and  _384
REMARK  164  A    between atoms: _384  and  _385
REMARK  165  A    between atoms: _384  and  _387
REMARK  166  A    between atoms: _387  and  _388
REMARK  167  A    between atoms: _391  and  _393
REMARK  168  A    between atoms: _393  and  _394
REMARK  169  A    between atoms: _393  and  _396
REMARK  170  A    between atoms: _396  and  _397
REMARK  171  A    between atoms: _399  and  _401
REMARK  172  A    between atoms: _401  and  _402
REMARK  173  A    between atoms: _401  and  _404
REMARK  174  A    between atoms: _404  and  _405
REMARK  175  A    between atoms: _415  and  _417
REMARK  176  A    between atoms: _417  and  _418
REMARK  177  A    between atoms: _417  and  _420
REMARK  178  A    between atoms: _420  and  _421
REMARK  179  A    between atoms: _423  and  _425
REMARK  180  A    between atoms: _425  and  _426
REMARK  181  A    between atoms: _425  and  _428
REMARK  182  A    between atoms: _428  and  _429
REMARK  183  A    between atoms: _429  and  _430
REMARK  184  A    between atoms: _433  and  _435
REMARK  185  A    between atoms: _435  and  _436
REMARK  186  A    between atoms: _435  and  _438
REMARK  187  A    between atoms: _438  and  _439
REMARK  188  A    between atoms: _439  and  _440
REMARK  189  A    between atoms: _440  and  _441
REMARK                            x       y       z     vdW  Elec       q    Type
REMARK                         _______ _______ _______ _____ _____    ______ ____
ROOT
ATOM      1  CB  HIS A   1      -4.222 -30.837 -22.108  0.00  0.00    +0.072 C 
ENDROOT
BRANCH   1   2
ATOM      2  CG  HIS A   1      -5.056 -29.954 -22.982  0.00  0.00    +0.082 A 
ATOM      3  ND1 HIS A   1      -4.926 -28.581 -22.996  0.00  0.00    -0.227 NA
ATOM      4  CE1 HIS A   1      -5.786 -28.068 -23.858  0.00  0.00    +0.199 A 
ATOM      5  NE2 HIS A   1      -6.473 -29.059 -24.400  0.00  0.00    -0.221 NA
ATOM      6  CD2 HIS A   1      -6.038 -30.249 -23.867  0.00  0.00    +0.115 A 
ENDBRANCH   1   2
BRANCH   1   7
ATOM      7  CA  HIS A   1      -2.760 -30.954 -22.554  0.00  0.00    +0.139 C 
BRANCH   7   8
ATOM      8  N   HIS A   1      -2.670 -31.497 -23.917  0.00  0.00    -0.239 NA
ATOM      9  H   HIS A   1      -2.888 -32.507 -24.036  0.00  0.00    +0.142 HD
ENDBRANCH   7   8
BRANCH   7  10
ATOM     10  C   HIS A   1      -2.001 -31.895 -21.597  0.00  0.00    +0.224 C 
ATOM     11  O   HIS A   1      -2.594 -32.524 -20.699  0.00  0.00    -0.287 OA
ENDBRANCH   7  10
ENDBRANCH   1   7
TORSDOF 4
REMARK  Name = ../refined-set-2016/3t0b/3t0b_pocket.pdb
REMARK  189 active torsions:
REMARK  status: ('A' for Active; 'I' for Inactive)
REMARK    1  A    between atoms: _1  and  _3
REMARK    2  A    between atoms: _3  and  _4
REMARK    3  A    between atoms: _3  and  _6
REMARK    4  A    between atoms: _6  and  _7
REMARK    5  A    between atoms: _12  and  _13
REMARK    6  A    between atoms: _15  and  _17
REMARK    7  A    between atoms: _17  and  _18
REMARK    8  A    between atoms: _17  and  _20
REMARK    9  A    between atoms: _20  and  _21
REMARK   10  A    between atoms: _24  and  _26
REMARK   11  A    between atoms: _26  and  _27
REMARK   12  A    between atoms: _26  and  _29
REMARK   13  A    between atoms: _29  and  _30
REMARK   14  A    between atoms: _35  and  _37
REMARK   15  A    between atoms: _37  and  _38
REMARK   16  A    between atoms: _37  and  _40
REMARK   17  A    between atoms: _43  and  _45
REMARK   18  A    between atoms: _45  and  _46
REMARK   19  A    between atoms: _45  and  _48
REMARK   20  A    between atoms: _48  and  _49
REMARK   21  A    between atoms: _52  and  _54
REMARK   22  A    between atoms: _54  and  _55
REMARK   23  A    between atoms: _54  and  _57
REMARK   24  A    between atoms: _57  and  _58
REMARK   25  A    between atoms: _58  and  _59
REMARK   26  A    between atoms: _64  and  _66
REMARK   27  A    between atoms: _66  and  _67
REMARK   28  A    between atoms: _66  and  _69
REMARK   29  A    between atoms: _69  and  _70
REMARK   30  A    between atoms: _73  and  _75
REMARK   31  A    between atoms: _75  and  _76
REMARK   32  A    between atoms: _75  and  _78
REMARK   33  A    between atoms: _78  and  _79
REMARK   34  A    between atoms: _79  and  _80
REMARK   35  A    between atoms: _82  and  _84
REMARK   36  A    between atoms: _84  and  _85
REMARK   37  A    between atoms: _84  and  _87
REMARK   38  A    between atoms: _87  and  _88
REMARK   39  A    between atoms: _93  and  _95
REMARK   40  A    between atoms: _95  and  _96
REMARK   41  A    between atoms: _95  and  _98
REMARK   42  A    between atoms: _98  and  _99
REMARK   43  A    between atoms: _104  and  _106
REMARK   44  A    between atoms: _106  and  _107
REMARK   45  A    between atoms: _106  and  _109
REMARK   46  A    between atoms: _109  and  _110
REMARK   47  A    between atoms: _110  and  _111
REMARK   48  A    between atoms: _111  and  _112
REMARK   49  A    between atoms: _121  and  _123
REMARK   50  A    between atoms: _123  and  _124
REMARK   51  A    between atoms: _123  and  _126
REMARK   52  A    between atoms: _126  and  _127
REMARK   53  A    between atoms: _132  and  _134
REMARK   54  A    between atoms: _134  and  _135
REMARK   55  A    between atoms: _134  and  _137
REMARK   56  A    between atoms: _137  and  _138
REMARK   57  A    between atoms: _138  and  _139
REMARK   58  A    between atoms: _142  and  _144
REMARK   59  A    between atoms: _144  and  _145
REMARK   60  A    between atoms: _144  and  _147
REMARK   61  A    between atoms: _147  and  _148
REMARK   62  A    between atoms: _149  and  MG_450
REMARK   63  A    between atoms: _153  and  _155
REMARK   64  A    between atoms: _155  and  _156
REMARK   65  A    between atoms: _155  and  _158
REMARK   66  A    between atoms: _158  and  _159
REMARK   67  A    between atoms: _159  and  _160
REMARK   68  A    between atoms: _162  and  _164
REMARK   69  A    between atoms: _164  and  _165
REMARK   70  A    between atoms: _164  and  _167
REMARK   71  A    between atoms: _167  and  _168
REMARK   72  A    between atoms: _173  and  _175
REMARK   73  A    between atoms: _175  and  _176
REMARK   74  A    between atoms: _175  and  _178
REMARK   75  A    between atoms: _178  and  _179
REMARK   76  A    between atoms: _179  and  _180
REMARK   77  A    between atoms: _183  and  _185
REMARK   78  A    between atoms: _185  and  _186
REMARK   79  A    between atoms: _185  and  _188
REMARK   80  A    between atoms: _188  and  _189
REMARK   81  A    between atoms: _189  and  _190
REMARK   82  A    between atoms: _193  and  _195
REMARK   83  A    between atoms: _195  and  _196
REMARK   84  A    between atoms: _195  and  _198
REMARK   85  A    between atoms: _198  and  _199
REMARK   86  A    between atoms: _199  and  _200
REMARK   87  A    between atoms: _202  and  _204
REMARK   88  A    between atoms: _204  and  _205
REMARK   89  A    between atoms: _204  and  _207
REMARK   90  A    between atoms: _207  and  _208
REMARK   91  A    between atoms: _213  and  _214
REMARK   92  A    between atoms: _216  and  _218
REMARK   93  A    between atoms: _218  and  _219
REMARK   94  A    between atoms: _218  and  _221
REMARK   95  A    between atoms: _221  and  _222
REMARK   96  A    between atoms: _222  and  _223
REMARK   97  A    between atoms: _223  and  _224
REMARK   98  A    between atoms: _224  and  _225
REMARK   99  A    between atoms: _229  and  _231
REMARK  100  A    between atoms: _231  and  _232
REMARK  101  A    between atoms: _231  and  _234
REMARK  102  A    between atoms: _236  and  _238
REMARK  103  A    between atoms: _238  and  _239
REMARK  104  A    between atoms: _238  and  _241
REMARK  105  A    between atoms: _241  and  _242
REMARK  106  A    between atoms: _242  and  _243
REMARK  107  A    between atoms: _246  and  _248
REMARK  108  A    between atoms: _248  and  _249
REMARK  109  A    between atoms: _248  and  _251
REMARK  110  A    between atoms: _251  and  _252
REMARK  111  A    between atoms: _257  and  _259
REMARK  112  A    between atoms: _259  and  _260
REMARK  113  A    between atoms: _263  and  _265
REMARK  114  A    between atoms: _265  and  _266
REMARK  115  A    between atoms: _265  and  _268
REMARK  116  A    between atoms: _268  and  _269
REMARK  117  A    between atoms: _269  and  _270
REMARK  118  A    between atoms: _272  and  _274
REMARK  119  A    between atoms: _274  and  _275
REMARK  120  A    between atoms: _274  and  _277
REMARK  121  A    between atoms: _277  and  _278
REMARK  122  A    between atoms: _288  and  _290
REMARK  123  A    between atoms: _290  and  _291
REMARK  124  A    between atoms: _290  and  _293
REMARK  125  A    between atoms: _293  and  _294
REMARK  126  A    between atoms: _297  and  _299
REMARK  127  A    between atoms: _299  and  _300
REMARK  128  A    between atoms: _299  and  _302
REMARK  129  A    between atoms: _302  and  _303
REMARK  130  A    between atoms: _303  and  _304
REMARK  131  A    between atoms: _309  and  _311
REMARK  132  A    between atoms: _311  and  _312
REMARK  133  A    between atoms: _311  and  _314
REMARK  134  A    between atoms: _314  and  _315
REMARK  135  A    between atoms: _318  and  _320
REMARK  136  A    between atoms: _320  and  _321
REMARK  137  A    between atoms: _320  and  _323
REMARK  138  A    between atoms: _323  and  _324
REMARK  139  A    between atoms: _324  and  _325
REMARK  140  A    between atoms: _330  and  _332
REMARK  141  A    between atoms: _332  and  _333
REMARK  142  A    between atoms: _332  and  _335
REMARK  143  A    between atoms: _333  and  _334
REMARK  144  A    between atoms: _333  and  _342
REMARK  145  A    between atoms: _335  and  _336
REMARK  146  A    between atoms: _342  and  _344
REMARK  147  A    between atoms: _344  and  _345
REMARK  148  A    between atoms: _344  and  _347
REMARK  149  A    between atoms: _349  and  _351
REMARK  150  A    between atoms: _351  and  _352
REMARK  151  A    between atoms: _351  and  _354
REMARK  152  A    between atoms: _354  and  _355
REMARK  153  A    between atoms: _355  and  _356
REMARK  154  A    between atoms: _358  and  _360
REMARK  155  A    between atoms: _360  and  _361
REMARK  156  A    between atoms: _360  and  _363
REMARK  157  A    between atoms: _363  and  _364
REMARK  158  A    between atoms: _369  and  _371
REMARK  159  A    between atoms: _371  and  _372
REMARK  160  A    between atoms: _374  and  _376
REMARK  161  A    between atoms: _376  and  _377
REMARK  162  A    between atoms: _376  and  _379
REMARK  163  A    between atoms: _382  and  _384
REMARK  164  A    between atoms: _384  and  _385
REMARK  165  A    between atoms: _384  and  _387
REMARK  166  A    between atoms: _387  and  _388
REMARK  167  A    between atoms: _391  and  _393
REMARK  168  A    between atoms: _393  and  _394
REMARK  169  A    between atoms: _393  and  _396
REMARK  170  A    between atoms: _396  and  _397
REMARK  171  A    between atoms: _399  and  _401
REMARK  172  A    between atoms: _401  and  _402
REMARK  173  A    between atoms: _401  and  _404
REMARK  174  A    between atoms: _404  and  _405
REMARK  175  A    between atoms: _415  and  _417
REMARK  176  A    between atoms: _417  and  _418
REMARK  177  A    between atoms: _417  and  _420
REMARK  178  A    between atoms: _420  and  _421
REMARK  179  A    between atoms: _423  and  _425
REMARK  180  A    between atoms: _425  and  _426
REMARK  181  A    between atoms: _425  and  _428
REMARK  182  A    between atoms: _428  and  _429
REMARK  183  A    between atoms: _429  and  _430
REMARK  184  A    between atoms: _433  and  _435
REMARK  185  A    between atoms: _435  and  _436
REMARK  186  A    between atoms: _435  and  _438
REMARK  187  A    between atoms: _438  and  _439
REMARK  188  A    between atoms: _439  and  _440
REMARK  189  A    between atoms: _440  and  _441
REMARK                            x       y       z     vdW  Elec       q    Type
REMARK                         _______ _______ _______ _____ _____    ______ ____
ROOT
ATOM      1  CA  GLU A   1      -7.949 -33.076 -17.316  0.00  0.00    +0.134 C 
ENDROOT
BRANCH   1   2
ATOM      2  N   GLU A   1      -6.690 -33.556 -16.763  0.00  0.00    -0.239 NA
ATOM      3  H   GLU A   1      -6.530 -34.580 -16.677  0.00  0.00    +0.142 HD
ENDBRANCH   1   2
BRANCH   1   4
ATOM      4  C   GLU A   1      -9.093 -33.933 -16.830  0.00  0.00    +0.224 C 
ATOM      5  O   GLU A   1      -9.118 -35.140 -17.074  0.00  0.00    -0.287 OA
ENDBRANCH   1   4
BRANCH   1   6
ATOM      6  CB  GLU A   1      -7.947 -32.979 -18.853  0.00  0.00    +0.037 C 
BRANCH   6   7
ATOM      7  CG  GLU A   1      -9.365 -32.672 -19.404  0.00  0.00    +0.116 C 
BRANCH   7   8
ATOM      8  CD  GLU A   1      -9.416 -31.979 -20.761  0.00  0.00    +0.365 C 
ATOM      9  OE2 GLU A   1     -10.539 -31.661 -21.187  0.00  0.00    -0.246 OA
ATOM     10  OE1 GLU A   1      -8.372 -31.750 -21.411  0.00  0.00    -0.246 OA
ENDBRANCH   7   8
ENDBRANCH   6   7
ENDBRANCH   1   6
TORSDOF 5
REMARK  Name = ../refined-set-2016/3t0b/3t0b_pocket.pdb
REMARK  189 active torsions:
REMARK  status: ('A' for Active; 'I' for Inactive)
REMARK    1  A    between atoms: _1  and  _3
REMARK    2  A    between atoms: _3  and  _4
REMARK    3  A    between atoms: _3  and  _6
REMARK    4  A    between atoms: _6  and  _7
REMARK    5  A    between atoms: _12  and  _13
REMARK    6  A    between atoms: _15  and  _17
REMARK    7  A    between atoms: _17  and  _18
REMARK    8  A    between atoms: _17  and  _20
REMARK    9  A    between atoms: _20  and  _21
REMARK   10  A    between atoms: _24  and  _26
REMARK   11  A    between atoms: _26  and  _27
REMARK   12  A    between atoms: _26  and  _29
REMARK   13  A    between atoms: _29  and  _30
REMARK   14  A    between atoms: _35  and  _37
REMARK   15  A    between atoms: _37  and  _38
REMARK   16  A    between atoms: _37  and  _40
REMARK   17  A    between atoms: _43  and  _45
REMARK   18  A    between atoms: _45  and  _46
REMARK   19  A    between atoms: _45  and  _48
REMARK   20  A    between atoms: _48  and  _49
REMARK   21  A    between atoms: _52  and  _54
REMARK   22  A    between atoms: _54  and  _55
REMARK   23  A    between atoms: _54  and  _57
REMARK   24  A    between atoms: _57  and  _58
REMARK   25  A    between atoms: _58  and  _59
REMARK   26  A    between atoms: _64  and  _66
REMARK   27  A    between atoms: _66  and  _67
REMARK   28  A    between atoms: _66  and  _69
REMARK   29  A    between atoms: _69  and  _70
REMARK   30  A    between atoms: _73  and  _75
REMARK   31  A    between atoms: _75  and  _76
REMARK   32  A    between atoms: _75  and  _78
REMARK   33  A    between atoms: _78  and  _79
REMARK   34  A    between atoms: _79  and  _80
REMARK   35  A    between atoms: _82  and  _84
REMARK   36  A    between atoms: _84  and  _85
REMARK   37  A    between atoms: _84  and  _87
REMARK   38  A    between atoms: _87  and  _88
REMARK   39  A    between atoms: _93  and  _95
REMARK   40  A    between atoms: _95  and  _96
REMARK   41  A    between atoms: _95  and  _98
REMARK   42  A    between atoms: _98  and  _99
REMARK   43  A    between atoms: _104  and  _106
REMARK   44  A    between atoms: _106  and  _107
REMARK   45  A    between atoms: _106  and  _109
REMARK   46  A    between atoms: _109  and  _110
REMARK   47  A    between atoms: _110  and  _111
REMARK   48  A    between atoms: _111  and  _112
REMARK   49  A    between atoms: _121  and  _123
REMARK   50  A    between atoms: _123  and  _124
REMARK   51  A    between atoms: _123  and  _126
REMARK   52  A    between atoms: _126  and  _127
REMARK   53  A    between atoms: _132  and  _134
REMARK   54  A    between atoms: _134  and  _135
REMARK   55  A    between atoms: _134  and  _137
REMARK   56  A    between atoms: _137  and  _138
REMARK   57  A    between atoms: _138  and  _139
REMARK   58  A    between atoms: _142  and  _144
REMARK   59  A    between atoms: _144  and  _145
REMARK   60  A    between atoms: _144  and  _147
REMARK   61  A    between atoms: _147  and  _148
REMARK   62  A    between atoms: _149  and  MG_450
REMARK   63  A    between atoms: _153  and  _155
REMARK   64  A    between atoms: _155  and  _156
REMARK   65  A    between atoms: _155  and  _158
REMARK   66  A    between atoms: _158  and  _159
REMARK   67  A    between atoms: _159  and  _160
REMARK   68  A    between atoms: _162  and  _164
REMARK   69  A    between atoms: _164  and  _165
REMARK   70  A    between atoms: _164  and  _167
REMARK   71  A    between atoms: _167  and  _168
REMARK   72  A    between atoms: _173  and  _175
REMARK   73  A    between atoms: _175  and  _176
REMARK   74  A    between atoms: _175  and  _178
REMARK   75  A    between atoms: _178  and  _179
REMARK   76  A    between atoms: _179  and  _180
REMARK   77  A    between atoms: _183  and  _185
REMARK   78  A    between atoms: _185  and  _186
REMARK   79  A    between atoms: _185  and  _188
REMARK   80  A    between atoms: _188  and  _189
REMARK   81  A    between atoms: _189  and  _190
REMARK   82  A    between atoms: _193  and  _195
REMARK   83  A    between atoms: _195  and  _196
REMARK   84  A    between atoms: _195  and  _198
REMARK   85  A    between atoms: _198  and  _199
REMARK   86  A    between atoms: _199  and  _200
REMARK   87  A    between atoms: _202  and  _204
REMARK   88  A    between atoms: _204  and  _205
REMARK   89  A    between atoms: _204  and  _207
REMARK   90  A    between atoms: _207  and  _208
REMARK   91  A    between atoms: _213  and  _214
REMARK   92  A    between atoms: _216  and  _218
REMARK   93  A    between atoms: _218  and  _219
REMARK   94  A    between atoms: _218  and  _221
REMARK   95  A    between atoms: _221  and  _222
REMARK   96  A    between atoms: _222  and  _223
REMARK   97  A    between atoms: _223  and  _224
REMARK   98  A    between atoms: _224  and  _225
REMARK   99  A    between atoms: _229  and  _231
REMARK  100  A    between atoms: _231  and  _232
REMARK  101  A    between atoms: _231  and  _234
REMARK  102  A    between atoms: _236  and  _238
REMARK  103  A    between atoms: _238  and  _239
REMARK  104  A    between atoms: _238  and  _241
REMARK  105  A    between atoms: _241  and  _242
REMARK  106  A    between atoms: _242  and  _243
REMARK  107  A    between atoms: _246  and  _248
REMARK  108  A    between atoms: _248  and  _249
REMARK  109  A    between atoms: _248  and  _251
REMARK  110  A    between atoms: _251  and  _252
REMARK  111  A    between atoms: _257  and  _259
REMARK  112  A    between atoms: _259  and  _260
REMARK  113  A    between atoms: _263  and  _265
REMARK  114  A    between atoms: _265  and  _266
REMARK  115  A    between atoms: _265  and  _268
REMARK  116  A    between atoms: _268  and  _269
REMARK  117  A    between atoms: _269  and  _270
REMARK  118  A    between atoms: _272  and  _274
REMARK  119  A    between atoms: _274  and  _275
REMARK  120  A    between atoms: _274  and  _277
REMARK  121  A    between atoms: _277  and  _278
REMARK  122  A    between atoms: _288  and  _290
REMARK  123  A    between atoms: _290  and  _291
REMARK  124  A    between atoms: _290  and  _293
REMARK  125  A    between atoms: _293  and  _294
REMARK  126  A    between atoms: _297  and  _299
REMARK  127  A    between atoms: _299  and  _300
REMARK  128  A    between atoms: _299  and  _302
REMARK  129  A    between atoms: _302  and  _303
REMARK  130  A    between atoms: _303  and  _304
REMARK  131  A    between atoms: _309  and  _311
REMARK  132  A    between atoms: _311  and  _312
REMARK  133  A    between atoms: _311  and  _314
REMARK  134  A    between atoms: _314  and  _315
REMARK  135  A    between atoms: _318  and  _320
REMARK  136  A    between atoms: _320  and  _321
REMARK  137  A    between atoms: _320  and  _323
REMARK  138  A    between atoms: _323  and  _324
REMARK  139  A    between atoms: _324  and  _325
REMARK  140  A    between atoms: _330  and  _332
REMARK  141  A    between atoms: _332  and  _333
REMARK  142  A    between atoms: _332  and  _335
REMARK  143  A    between atoms: _333  and  _334
REMARK  144  A    between atoms: _333  and  _342
REMARK  145  A    between atoms: _335  and  _336
REMARK  146  A    between atoms: _342  and  _344
REMARK  147  A    between atoms: _344  and  _345
REMARK  148  A    between atoms: _344  and  _347
REMARK  149  A    between atoms: _349  and  _351
REMARK  150  A    between atoms: _351  and  _352
REMARK  151  A    between atoms: _351  and  _354
REMARK  152  A    between atoms: _354  and  _355
REMARK  153  A    between atoms: _355  and  _356
REMARK  154  A    between atoms: _358  and  _360
REMARK  155  A    between atoms: _360  and  _361
REMARK  156  A    between atoms: _360  and  _363
REMARK  157  A    between atoms: _363  and  _364
REMARK  158  A    between atoms: _369  and  _371
REMARK  159  A    between atoms: _371  and  _372
REMARK  160  A    between atoms: _374  and  _376
REMARK  161  A    between atoms: _376  and  _377
REMARK  162  A    between atoms: _376  and  _379
REMARK  163  A    between atoms: _382  and  _384
REMARK  164  A    between atoms: _384  and  _385
REMARK  165  A    between atoms: _384  and  _387
REMARK  166  A    between atoms: _387  and  _388
REMARK  167  A    between atoms: _391  and  _393
REMARK  168  A    between atoms: _393  and  _394
REMARK  169  A    between atoms: _393  and  _396
REMARK  170  A    between atoms: _396  and  _397
REMARK  171  A    between atoms: _399  and  _401
REMARK  172  A    between atoms: _401  and  _402
REMARK  173  A    between atoms: _401  and  _404
REMARK  174  A    between atoms: _404  and  _405
REMARK  175  A    between atoms: _415  and  _417
REMARK  176  A    between atoms: _417  and  _418
REMARK  177  A    between atoms: _417  and  _420
REMARK  178  A    between atoms: _420  and  _421
REMARK  179  A    between atoms: _423  and  _425
REMARK  180  A    between atoms: _425  and  _426
REMARK  181  A    between atoms: _425  and  _428
REMARK  182  A    between atoms: _428  and  _429
REMARK  183  A    between atoms: _429  and  _430
REMARK  184  A    between atoms: _433  and  _435
REMARK  185  A    between atoms: _435  and  _436
REMARK  186  A    between atoms: _435  and  _438
REMARK  187  A    between atoms: _438  and  _439
REMARK  188  A    between atoms: _439  and  _440
REMARK  189  A    between atoms: _440  and  _441
REMARK                            x       y       z     vdW  Elec       q    Type
REMARK                         _______ _______ _______ _____ _____    ______ ____
ROOT
ATOM      1  C   UNL     1     -13.983 -31.049 -20.277  0.00  0.00    +0.000 A 
ATOM      2  C   UNL     1     -15.069 -30.321 -19.925  0.00  0.00    +0.000 A 
ATOM      3  N   UNL     1     -15.236 -29.353 -20.886  0.00  0.00    +0.000 NA
ATOM      4  C   UNL     1     -14.283 -29.477 -21.791  0.00  0.00    +0.000 A 
ATOM      5  N   UNL     1     -13.508 -30.488 -21.444  0.00  0.00    +0.000 N 
ENDROOT
BRANCH   5   6
ATOM      6 MG   UNL     1     -11.913 -31.021 -22.602  0.00  0.00    +0.000 Mg
ATOM      7  O   UNL     1     -12.123 -33.033 -22.867  0.00  0.00    +0.000 OA
ENDBRANCH   5   6
BRANCH   1   8
ATOM      8  C   UNL     1     -13.321 -32.220 -19.615  0.00  0.00    +0.000 C 
BRANCH   8   9
ATOM      9  CA  UNL     1     -13.579 -32.311 -18.107  0.00  0.00    +0.000 C 
BRANCH   9  10
ATOM     10  N   UNL     1     -12.480 -33.018 -17.452  0.00  0.00    +0.000 NA
ATOM     11  H   UNL     1     -11.643 -33.278 -18.013  0.00  0.00    +0.000 HD
ENDBRANCH   9  10
BRANCH   9  12
ATOM     12  C   UNL     1     -14.977 -32.916 -17.847  0.00  0.00    +0.000 C 
ATOM     13  O   UNL     1     -15.944 -32.182 -17.637  0.00  0.00    +0.000 OA
ENDBRANCH   9  12
ENDBRANCH   8   9
ENDBRANCH   1   8
TORSDOF 5
REMARK  Name = ../refined-set-2016/3t0b/3t0b_pocket.pdb
REMARK  189 active torsions:
REMARK  status: ('A' for Active; 'I' for Inactive)
REMARK    1  A    between atoms: _1  and  _3
REMARK    2  A    between atoms: _3  and  _4
REMARK    3  A    between atoms: _3  and  _6
REMARK    4  A    between atoms: _6  and  _7
REMARK    5  A    between atoms: _12  and  _13
REMARK    6  A    between atoms: _15  and  _17
REMARK    7  A    between atoms: _17  and  _18
REMARK    8  A    between atoms: _17  and  _20
REMARK    9  A    between atoms: _20  and  _21
REMARK   10  A    between atoms: _24  and  _26
REMARK   11  A    between atoms: _26  and  _27
REMARK   12  A    between atoms: _26  and  _29
REMARK   13  A    between atoms: _29  and  _30
REMARK   14  A    between atoms: _35  and  _37
REMARK   15  A    between atoms: _37  and  _38
REMARK   16  A    between atoms: _37  and  _40
REMARK   17  A    between atoms: _43  and  _45
REMARK   18  A    between atoms: _45  and  _46
REMARK   19  A    between atoms: _45  and  _48
REMARK   20  A    between atoms: _48  and  _49
REMARK   21  A    between atoms: _52  and  _54
REMARK   22  A    between atoms: _54  and  _55
REMARK   23  A    between atoms: _54  and  _57
REMARK   24  A    between atoms: _57  and  _58
REMARK   25  A    between atoms: _58  and  _59
REMARK   26  A    between atoms: _64  and  _66
REMARK   27  A    between atoms: _66  and  _67
REMARK   28  A    between atoms: _66  and  _69
REMARK   29  A    between atoms: _69  and  _70
REMARK   30  A    between atoms: _73  and  _75
REMARK   31  A    between atoms: _75  and  _76
REMARK   32  A    between atoms: _75  and  _78
REMARK   33  A    between atoms: _78  and  _79
REMARK   34  A    between atoms: _79  and  _80
REMARK   35  A    between atoms: _82  and  _84
REMARK   36  A    between atoms: _84  and  _85
REMARK   37  A    between atoms: _84  and  _87
REMARK   38  A    between atoms: _87  and  _88
REMARK   39  A    between atoms: _93  and  _95
REMARK   40  A    between atoms: _95  and  _96
REMARK   41  A    between atoms: _95  and  _98
REMARK   42  A    between atoms: _98  and  _99
REMARK   43  A    between atoms: _104  and  _106
REMARK   44  A    between atoms: _106  and  _107
REMARK   45  A    between atoms: _106  and  _109
REMARK   46  A    between atoms: _109  and  _110
REMARK   47  A    between atoms: _110  and  _111
REMARK   48  A    between atoms: _111  and  _112
REMARK   49  A    between atoms: _121  and  _123
REMARK   50  A    between atoms: _123  and  _124
REMARK   51  A    between atoms: _123  and  _126
REMARK   52  A    between atoms: _126  and  _127
REMARK   53  A    between atoms: _132  and  _134
REMARK   54  A    between atoms: _134  and  _135
REMARK   55  A    between atoms: _134  and  _137
REMARK   56  A    between atoms: _137  and  _138
REMARK   57  A    between atoms: _138  and  _139
REMARK   58  A    between atoms: _142  and  _144
REMARK   59  A    between atoms: _144  and  _145
REMARK   60  A    between atoms: _144  and  _147
REMARK   61  A    between atoms: _147  and  _148
REMARK   62  A    between atoms: _149  and  MG_450
REMARK   63  A    between atoms: _153  and  _155
REMARK   64  A    between atoms: _155  and  _156
REMARK   65  A    between atoms: _155  and  _158
REMARK   66  A    between atoms: _158  and  _159
REMARK   67  A    between atoms: _159  and  _160
REMARK   68  A    between atoms: _162  and  _164
REMARK   69  A    between atoms: _164  and  _165
REMARK   70  A    between atoms: _164  and  _167
REMARK   71  A    between atoms: _167  and  _168
REMARK   72  A    between atoms: _173  and  _175
REMARK   73  A    between atoms: _175  and  _176
REMARK   74  A    between atoms: _175  and  _178
REMARK   75  A    between atoms: _178  and  _179
REMARK   76  A    between atoms: _179  and  _180
REMARK   77  A    between atoms: _183  and  _185
REMARK   78  A    between atoms: _185  and  _186
REMARK   79  A    between atoms: _185  and  _188
REMARK   80  A    between atoms: _188  and  _189
REMARK   81  A    between atoms: _189  and  _190
REMARK   82  A    between atoms: _193  and  _195
REMARK   83  A    between atoms: _195  and  _196
REMARK   84  A    between atoms: _195  and  _198
REMARK   85  A    between atoms: _198  and  _199
REMARK   86  A    between atoms: _199  and  _200
REMARK   87  A    between atoms: _202  and  _204
REMARK   88  A    between atoms: _204  and  _205
REMARK   89  A    between atoms: _204  and  _207
REMARK   90  A    between atoms: _207  and  _208
REMARK   91  A    between atoms: _213  and  _214
REMARK   92  A    between atoms: _216  and  _218
REMARK   93  A    between atoms: _218  and  _219
REMARK   94  A    between atoms: _218  and  _221
REMARK   95  A    between atoms: _221  and  _222
REMARK   96  A    between atoms: _222  and  _223
REMARK   97  A    between atoms: _223  and  _224
REMARK   98  A    between atoms: _224  and  _225
REMARK   99  A    between atoms: _229  and  _231
REMARK  100  A    between atoms: _231  and  _232
REMARK  101  A    between atoms: _231  and  _234
REMARK  102  A    between atoms: _236  and  _238
REMARK  103  A    between atoms: _238  and  _239
REMARK  104  A    between atoms: _238  and  _241
REMARK  105  A    between atoms: _241  and  _242
REMARK  106  A    between atoms: _242  and  _243
REMARK  107  A    between atoms: _246  and  _248
REMARK  108  A    between atoms: _248  and  _249
REMARK  109  A    between atoms: _248  and  _251
REMARK  110  A    between atoms: _251  and  _252
REMARK  111  A    between atoms: _257  and  _259
REMARK  112  A    between atoms: _259  and  _260
REMARK  113  A    between atoms: _263  and  _265
REMARK  114  A    between atoms: _265  and  _266
REMARK  115  A    between atoms: _265  and  _268
REMARK  116  A    between atoms: _268  and  _269
REMARK  117  A    between atoms: _269  and  _270
REMARK  118  A    between atoms: _272  and  _274
REMARK  119  A    between atoms: _274  and  _275
REMARK  120  A    between atoms: _274  and  _277
REMARK  121  A    between atoms: _277  and  _278
REMARK  122  A    between atoms: _288  and  _290
REMARK  123  A    between atoms: _290  and  _291
REMARK  124  A    between atoms: _290  and  _293
REMARK  125  A    between atoms: _293  and  _294
REMARK  126  A    between atoms: _297  and  _299
REMARK  127  A    between atoms: _299  and  _300
REMARK  128  A    between atoms: _299  and  _302
REMARK  129  A    between atoms: _302  and  _303
REMARK  130  A    between atoms: _303  and  _304
REMARK  131  A    between atoms: _309  and  _311
REMARK  132  A    between atoms: _311  and  _312
REMARK  133  A    between atoms: _311  and  _314
REMARK  134  A    between atoms: _314  and  _315
REMARK  135  A    between atoms: _318  and  _320
REMARK  136  A    between atoms: _320  and  _321
REMARK  137  A    between atoms: _320  and  _323
REMARK  138  A    between atoms: _323  and  _324
REMARK  139  A    between atoms: _324  and  _325
REMARK  140  A    between atoms: _330  and  _332
REMARK  141  A    between atoms: _332  and  _333
REMARK  142  A    between atoms: _332  and  _335
REMARK  143  A    between atoms: _333  and  _334
REMARK  144  A    between atoms: _333  and  _342
REMARK  145  A    between atoms: _335  and  _336
REMARK  146  A    between atoms: _342  and  _344
REMARK  147  A    between atoms: _344  and  _345
REMARK  148  A    between atoms: _344  and  _347
REMARK  149  A    between atoms: _349  and  _351
REMARK  150  A    between atoms: _351  and  _352
REMARK  151  A    between atoms: _351  and  _354
REMARK  152  A    between atoms: _354  and  _355
REMARK  153  A    between atoms: _355  and  _356
REMARK  154  A    between atoms: _358  and  _360
REMARK  155  A    between atoms: _360  and  _361
REMARK  156  A    between atoms: _360  and  _363
REMARK  157  A    between atoms: _363  and  _364
REMARK  158  A    between atoms: _369  and  _371
REMARK  159  A    between atoms: _371  and  _372
REMARK  160  A    between atoms: _374  and  _376
REMARK  161  A    between atoms: _376  and  _377
REMARK  162  A    between atoms: _376  and  _379
REMARK  163  A    between atoms: _382  and  _384
REMARK  164  A    between atoms: _384  and  _385
REMARK  165  A    between atoms: _384  and  _387
REMARK  166  A    between atoms: _387  and  _388
REMARK  167  A    between atoms: _391  and  _393
REMARK  168  A    between atoms: _393  and  _394
REMARK  169  A    between atoms: _393  and  _396
REMARK  170  A    between atoms: _396  and  _397
REMARK  171  A    between atoms: _399  and  _401
REMARK  172  A    between atoms: _401  and  _402
REMARK  173  A    between atoms: _401  and  _404
REMARK  174  A    between atoms: _404  and  _405
REMARK  175  A    between atoms: _415  and  _417
REMARK  176  A    between atoms: _417  and  _418
REMARK  177  A    between atoms: _417  and  _420
REMARK  178  A    between atoms: _420  and  _421
REMARK  179  A    between atoms: _423  and  _425
REMARK  180  A    between atoms: _425  and  _426
REMARK  181  A    between atoms: _425  and  _428
REMARK  182  A    between atoms: _428  and  _429
REMARK  183  A    between atoms: _429  and  _430
REMARK  184  A    between atoms: _433  and  _435
REMARK  185  A    between atoms: _435  and  _436
REMARK  186  A    between atoms: _435  and  _438
REMARK  187  A    between atoms: _438  and  _439
REMARK  188  A    between atoms: _439  and  _440
REMARK  189  A    between atoms: _440  and  _441
REMARK                            x       y       z     vdW  Elec       q    Type
REMARK                         _______ _______ _______ _____ _____    ______ ____
ROOT
ATOM      1  CA  MET A   1     -15.839 -29.927 -13.450  0.00  0.00    +0.134 C 
ENDROOT
BRANCH   1   2
ATOM      2  N   MET A   1     -17.183 -29.685 -12.915  0.00  0.00    -0.239 NA
ATOM      3  H   MET A   1     -17.684 -28.815 -13.185  0.00  0.00    +0.142 HD
ENDBRANCH   1   2
BRANCH   1   4
ATOM      4  C   MET A   1     -14.729 -30.040 -12.403  0.00  0.00    +0.224 C 
ATOM      5  O   MET A   1     -13.704 -30.660 -12.674  0.00  0.00    -0.287 OA
ENDBRANCH   1   4
BRANCH   1   6
ATOM      6  CB  MET A   1     -15.460 -28.871 -14.489  0.00  0.00    +0.037 C 
BRANCH   6   7
ATOM      7  CG  MET A   1     -14.572 -29.406 -15.589  0.00  0.00    +0.059 C 
BRANCH   7   8
ATOM      8  SD  MET A   1     -13.925 -28.131 -16.689  0.00  0.00    -0.139 S 
ATOM      9  CE  MET A   1     -15.448 -27.386 -17.281  0.00  0.00    +0.069 C 
ENDBRANCH   7   8
ENDBRANCH   6   7
ENDBRANCH   1   6
TORSDOF 5
REMARK  Name = ../refined-set-2016/3t0b/3t0b_pocket.pdb
REMARK  189 active torsions:
REMARK  status: ('A' for Active; 'I' for Inactive)
REMARK    1  A    between atoms: _1  and  _3
REMARK    2  A    between atoms: _3  and  _4
REMARK    3  A    between atoms: _3  and  _6
REMARK    4  A    between atoms: _6  and  _7
REMARK    5  A    between atoms: _12  and  _13
REMARK    6  A    between atoms: _15  and  _17
REMARK    7  A    between atoms: _17  and  _18
REMARK    8  A    between atoms: _17  and  _20
REMARK    9  A    between atoms: _20  and  _21
REMARK   10  A    between atoms: _24  and  _26
REMARK   11  A    between atoms: _26  and  _27
REMARK   12  A    between atoms: _26  and  _29
REMARK   13  A    between atoms: _29  and  _30
REMARK   14  A    between atoms: _35  and  _37
REMARK   15  A    between atoms: _37  and  _38
REMARK   16  A    between atoms: _37  and  _40
REMARK   17  A    between atoms: _43  and  _45
REMARK   18  A    between atoms: _45  and  _46
REMARK   19  A    between atoms: _45  and  _48
REMARK   20  A    between atoms: _48  and  _49
REMARK   21  A    between atoms: _52  and  _54
REMARK   22  A    between atoms: _54  and  _55
REMARK   23  A    between atoms: _54  and  _57
REMARK   24  A    between atoms: _57  and  _58
REMARK   25  A    between atoms: _58  and  _59
REMARK   26  A    between atoms: _64  and  _66
REMARK   27  A    between atoms: _66  and  _67
REMARK   28  A    between atoms: _66  and  _69
REMARK   29  A    between atoms: _69  and  _70
REMARK   30  A    between atoms: _73  and  _75
REMARK   31  A    between atoms: _75  and  _76
REMARK   32  A    between atoms: _75  and  _78
REMARK   33  A    between atoms: _78  and  _79
REMARK   34  A    between atoms: _79  and  _80
REMARK   35  A    between atoms: _82  and  _84
REMARK   36  A    between atoms: _84  and  _85
REMARK   37  A    between atoms: _84  and  _87
REMARK   38  A    between atoms: _87  and  _88
REMARK   39  A    between atoms: _93  and  _95
REMARK   40  A    between atoms: _95  and  _96
REMARK   41  A    between atoms: _95  and  _98
REMARK   42  A    between atoms: _98  and  _99
REMARK   43  A    between atoms: _104  and  _106
REMARK   44  A    between atoms: _106  and  _107
REMARK   45  A    between atoms: _106  and  _109
REMARK   46  A    between atoms: _109  and  _110
REMARK   47  A    between atoms: _110  and  _111
REMARK   48  A    between atoms: _111  and  _112
REMARK   49  A    between atoms: _121  and  _123
REMARK   50  A    between atoms: _123  and  _124
REMARK   51  A    between atoms: _123  and  _126
REMARK   52  A    between atoms: _126  and  _127
REMARK   53  A    between atoms: _132  and  _134
REMARK   54  A    between atoms: _134  and  _135
REMARK   55  A    between atoms: _134  and  _137
REMARK   56  A    between atoms: _137  and  _138
REMARK   57  A    between atoms: _138  and  _139
REMARK   58  A    between atoms: _142  and  _144
REMARK   59  A    between atoms: _144  and  _145
REMARK   60  A    between atoms: _144  and  _147
REMARK   61  A    between atoms: _147  and  _148
REMARK   62  A    between atoms: _149  and  MG_450
REMARK   63  A    between atoms: _153  and  _155
REMARK   64  A    between atoms: _155  and  _156
REMARK   65  A    between atoms: _155  and  _158
REMARK   66  A    between atoms: _158  and  _159
REMARK   67  A    between atoms: _159  and  _160
REMARK   68  A    between atoms: _162  and  _164
REMARK   69  A    between atoms: _164  and  _165
REMARK   70  A    between atoms: _164  and  _167
REMARK   71  A    between atoms: _167  and  _168
REMARK   72  A    between atoms: _173  and  _175
REMARK   73  A    between atoms: _175  and  _176
REMARK   74  A    between atoms: _175  and  _178
REMARK   75  A    between atoms: _178  and  _179
REMARK   76  A    between atoms: _179  and  _180
REMARK   77  A    between atoms: _183  and  _185
REMARK   78  A    between atoms: _185  and  _186
REMARK   79  A    between atoms: _185  and  _188
REMARK   80  A    between atoms: _188  and  _189
REMARK   81  A    between atoms: _189  and  _190
REMARK   82  A    between atoms: _193  and  _195
REMARK   83  A    between atoms: _195  and  _196
REMARK   84  A    between atoms: _195  and  _198
REMARK   85  A    between atoms: _198  and  _199
REMARK   86  A    between atoms: _199  and  _200
REMARK   87  A    between atoms: _202  and  _204
REMARK   88  A    between atoms: _204  and  _205
REMARK   89  A    between atoms: _204  and  _207
REMARK   90  A    between atoms: _207  and  _208
REMARK   91  A    between atoms: _213  and  _214
REMARK   92  A    between atoms: _216  and  _218
REMARK   93  A    between atoms: _218  and  _219
REMARK   94  A    between atoms: _218  and  _221
REMARK   95  A    between atoms: _221  and  _222
REMARK   96  A    between atoms: _222  and  _223
REMARK   97  A    between atoms: _223  and  _224
REMARK   98  A    between atoms: _224  and  _225
REMARK   99  A    between atoms: _229  and  _231
REMARK  100  A    between atoms: _231  and  _232
REMARK  101  A    between atoms: _231  and  _234
REMARK  102  A    between atoms: _236  and  _238
REMARK  103  A    between atoms: _238  and  _239
REMARK  104  A    between atoms: _238  and  _241
REMARK  105  A    between atoms: _241  and  _242
REMARK  106  A    between atoms: _242  and  _243
REMARK  107  A    between atoms: _246  and  _248
REMARK  108  A    between atoms: _248  and  _249
REMARK  109  A    between atoms: _248  and  _251
REMARK  110  A    between atoms: _251  and  _252
REMARK  111  A    between atoms: _257  and  _259
REMARK  112  A    between atoms: _259  and  _260
REMARK  113  A    between atoms: _263  and  _265
REMARK  114  A    between atoms: _265  and  _266
REMARK  115  A    between atoms: _265  and  _268
REMARK  116  A    between atoms: _268  and  _269
REMARK  117  A    between atoms: _269  and  _270
REMARK  118  A    between atoms: _272  and  _274
REMARK  119  A    between atoms: _274  and  _275
REMARK  120  A    between atoms: _274  and  _277
REMARK  121  A    between atoms: _277  and  _278
REMARK  122  A    between atoms: _288  and  _290
REMARK  123  A    between atoms: _290  and  _291
REMARK  124  A    between atoms: _290  and  _293
REMARK  125  A    between atoms: _293  and  _294
REMARK  126  A    between atoms: _297  and  _299
REMARK  127  A    between atoms: _299  and  _300
REMARK  128  A    between atoms: _299  and  _302
REMARK  129  A    between atoms: _302  and  _303
REMARK  130  A    between atoms: _303  and  _304
REMARK  131  A    between atoms: _309  and  _311
REMARK  132  A    between atoms: _311  and  _312
REMARK  133  A    between atoms: _311  and  _314
REMARK  134  A    between atoms: _314  and  _315
REMARK  135  A    between atoms: _318  and  _320
REMARK  136  A    between atoms: _320  and  _321
REMARK  137  A    between atoms: _320  and  _323
REMARK  138  A    between atoms: _323  and  _324
REMARK  139  A    between atoms: _324  and  _325
REMARK  140  A    between atoms: _330  and  _332
REMARK  141  A    between atoms: _332  and  _333
REMARK  142  A    between atoms: _332  and  _335
REMARK  143  A    between atoms: _333  and  _334
REMARK  144  A    between atoms: _333  and  _342
REMARK  145  A    between atoms: _335  and  _336
REMARK  146  A    between atoms: _342  and  _344
REMARK  147  A    between atoms: _344  and  _345
REMARK  148  A    between atoms: _344  and  _347
REMARK  149  A    between atoms: _349  and  _351
REMARK  150  A    between atoms: _351  and  _352
REMARK  151  A    between atoms: _351  and  _354
REMARK  152  A    between atoms: _354  and  _355
REMARK  153  A    between atoms: _355  and  _356
REMARK  154  A    between atoms: _358  and  _360
REMARK  155  A    between atoms: _360  and  _361
REMARK  156  A    between atoms: _360  and  _363
REMARK  157  A    between atoms: _363  and  _364
REMARK  158  A    between atoms: _369  and  _371
REMARK  159  A    between atoms: _371  and  _372
REMARK  160  A    between atoms: _374  and  _376
REMARK  161  A    between atoms: _376  and  _377
REMARK  162  A    between atoms: _376  and  _379
REMARK  163  A    between atoms: _382  and  _384
REMARK  164  A    between atoms: _384  and  _385
REMARK  165  A    between atoms: _384  and  _387
REMARK  166  A    between atoms: _387  and  _388
REMARK  167  A    between atoms: _391  and  _393
REMARK  168  A    between atoms: _393  and  _394
REMARK  169  A    between atoms: _393  and  _396
REMARK  170  A    between atoms: _396  and  _397
REMARK  171  A    between atoms: _399  and  _401
REMARK  172  A    between atoms: _401  and  _402
REMARK  173  A    between atoms: _401  and  _404
REMARK  174  A    between atoms: _404  and  _405
REMARK  175  A    between atoms: _415  and  _417
REMARK  176  A    between atoms: _417  and  _418
REMARK  177  A    between atoms: _417  and  _420
REMARK  178  A    between atoms: _420  and  _421
REMARK  179  A    between atoms: _423  and  _425
REMARK  180  A    between atoms: _425  and  _426
REMARK  181  A    between atoms: _425  and  _428
REMARK  182  A    between atoms: _428  and  _429
REMARK  183  A    between atoms: _429  and  _430
REMARK  184  A    between atoms: _433  and  _435
REMARK  185  A    between atoms: _435  and  _436
REMARK  186  A    between atoms: _435  and  _438
REMARK  187  A    between atoms: _438  and  _439
REMARK  188  A    between atoms: _439  and  _440
REMARK  189  A    between atoms: _440  and  _441
REMARK                            x       y       z     vdW  Elec       q    Type
REMARK                         _______ _______ _______ _____ _____    ______ ____
ROOT
ATOM      1  C   ASN A   1      -8.184 -28.695 -18.057  0.00  0.00    +0.239 C 
ATOM      2  O   ASN A   1      -8.343 -29.849 -17.630  0.00  0.00    -0.274 OA
ATOM      3  N   GLU A   2      -9.162 -27.797 -18.156  0.00  0.00    -0.298 N 
ATOM      4  H   GLU A   2      -8.908 -26.810 -18.361  0.00  0.00    +0.150 HD
ENDROOT
BRANCH   1   5
ATOM      5  CA  ASN A   1      -6.814 -28.218 -18.494  0.00  0.00    +0.154 C 
BRANCH   5   6
ATOM      6  N   ASN A   1      -5.780 -28.719 -17.613  0.00  0.00    -0.238 NA
ATOM      7  H   ASN A   1      -5.899 -29.650 -17.165  0.00  0.00    +0.142 HD
ENDBRANCH   5   6
BRANCH   5   8
ATOM      8  CB  ASN A   1      -6.535 -28.690 -19.915  0.00  0.00    +0.111 C 
BRANCH   8   9
ATOM      9  CG  ASN A   1      -7.446 -28.046 -20.934  0.00  0.00    +0.221 C 
ATOM     10  OD1 ASN A   1      -7.451 -26.821 -21.098  0.00  0.00    -0.275 OA
ATOM     11  ND2 ASN A   1      -8.213 -28.872 -21.645  0.00  0.00    -0.329 N 
ATOM     12 HD21 ASN A   1      -8.174 -29.897 -21.471  0.00  0.00    +0.145 HD
ATOM     13 HD22 ASN A   1      -8.850 -28.492 -22.374  0.00  0.00    +0.145 HD
ENDBRANCH   8   9
ENDBRANCH   5   8
ENDBRANCH   1   5
BRANCH   3  14
ATOM     14  CA  GLU A   2     -10.574 -28.132 -17.990  0.00  0.00    +0.137 C 
BRANCH  14  15
ATOM     15  C   GLU A   2     -10.805 -29.131 -16.858  0.00  0.00    +0.227 C 
ATOM     16  O   GLU A   2     -11.244 -30.263 -17.067  0.00  0.00    -0.286 OA
ENDBRANCH  14  15
BRANCH  14  17
ATOM     17  CB  GLU A   2     -11.171 -28.615 -19.320  0.00  0.00    +0.039 C 
BRANCH  17  18
ATOM     18  CG  GLU A   2     -10.994 -27.596 -20.442  0.00  0.00    +0.116 C 
BRANCH  18  19
ATOM     19  CD  GLU A   2     -11.570 -28.039 -21.778  0.00  0.00    +0.365 C 
ATOM     20  OE2 GLU A   2     -11.188 -29.112 -22.291  0.00  0.00    -0.246 OA
ATOM     21  OE1 GLU A   2     -12.398 -27.290 -22.328  0.00  0.00    -0.246 OA
ENDBRANCH  18  19
ENDBRANCH  17  18
ENDBRANCH  14  17
ENDBRANCH   3  14
TORSDOF 9
REMARK  Name = ../refined-set-2016/3t0b/3t0b_pocket.pdb
REMARK  189 active torsions:
REMARK  status: ('A' for Active; 'I' for Inactive)
REMARK    1  A    between atoms: _1  and  _3
REMARK    2  A    between atoms: _3  and  _4
REMARK    3  A    between atoms: _3  and  _6
REMARK    4  A    between atoms: _6  and  _7
REMARK    5  A    between atoms: _12  and  _13
REMARK    6  A    between atoms: _15  and  _17
REMARK    7  A    between atoms: _17  and  _18
REMARK    8  A    between atoms: _17  and  _20
REMARK    9  A    between atoms: _20  and  _21
REMARK   10  A    between atoms: _24  and  _26
REMARK   11  A    between atoms: _26  and  _27
REMARK   12  A    between atoms: _26  and  _29
REMARK   13  A    between atoms: _29  and  _30
REMARK   14  A    between atoms: _35  and  _37
REMARK   15  A    between atoms: _37  and  _38
REMARK   16  A    between atoms: _37  and  _40
REMARK   17  A    between atoms: _43  and  _45
REMARK   18  A    between atoms: _45  and  _46
REMARK   19  A    between atoms: _45  and  _48
REMARK   20  A    between atoms: _48  and  _49
REMARK   21  A    between atoms: _52  and  _54
REMARK   22  A    between atoms: _54  and  _55
REMARK   23  A    between atoms: _54  and  _57
REMARK   24  A    between atoms: _57  and  _58
REMARK   25  A    between atoms: _58  and  _59
REMARK   26  A    between atoms: _64  and  _66
REMARK   27  A    between atoms: _66  and  _67
REMARK   28  A    between atoms: _66  and  _69
REMARK   29  A    between atoms: _69  and  _70
REMARK   30  A    between atoms: _73  and  _75
REMARK   31  A    between atoms: _75  and  _76
REMARK   32  A    between atoms: _75  and  _78
REMARK   33  A    between atoms: _78  and  _79
REMARK   34  A    between atoms: _79  and  _80
REMARK   35  A    between atoms: _82  and  _84
REMARK   36  A    between atoms: _84  and  _85
REMARK   37  A    between atoms: _84  and  _87
REMARK   38  A    between atoms: _87  and  _88
REMARK   39  A    between atoms: _93  and  _95
REMARK   40  A    between atoms: _95  and  _96
REMARK   41  A    between atoms: _95  and  _98
REMARK   42  A    between atoms: _98  and  _99
REMARK   43  A    between atoms: _104  and  _106
REMARK   44  A    between atoms: _106  and  _107
REMARK   45  A    between atoms: _106  and  _109
REMARK   46  A    between atoms: _109  and  _110
REMARK   47  A    between atoms: _110  and  _111
REMARK   48  A    between atoms: _111  and  _112
REMARK   49  A    between atoms: _121  and  _123
REMARK   50  A    between atoms: _123  and  _124
REMARK   51  A    between atoms: _123  and  _126
REMARK   52  A    between atoms: _126  and  _127
REMARK   53  A    between atoms: _132  and  _134
REMARK   54  A    between atoms: _134  and  _135
REMARK   55  A    between atoms: _134  and  _137
REMARK   56  A    between atoms: _137  and  _138
REMARK   57  A    between atoms: _138  and  _139
REMARK   58  A    between atoms: _142  and  _144
REMARK   59  A    between atoms: _144  and  _145
REMARK   60  A    between atoms: _144  and  _147
REMARK   61  A    between atoms: _147  and  _148
REMARK   62  A    between atoms: _149  and  MG_450
REMARK   63  A    between atoms: _153  and  _155
REMARK   64  A    between atoms: _155  and  _156
REMARK   65  A    between atoms: _155  and  _158
REMARK   66  A    between atoms: _158  and  _159
REMARK   67  A    between atoms: _159  and  _160
REMARK   68  A    between atoms: _162  and  _164
REMARK   69  A    between atoms: _164  and  _165
REMARK   70  A    between atoms: _164  and  _167
REMARK   71  A    between atoms: _167  and  _168
REMARK   72  A    between atoms: _173  and  _175
REMARK   73  A    between atoms: _175  and  _176
REMARK   74  A    between atoms: _175  and  _178
REMARK   75  A    between atoms: _178  and  _179
REMARK   76  A    between atoms: _179  and  _180
REMARK   77  A    between atoms: _183  and  _185
REMARK   78  A    between atoms: _185  and  _186
REMARK   79  A    between atoms: _185  and  _188
REMARK   80  A    between atoms: _188  and  _189
REMARK   81  A    between atoms: _189  and  _190
REMARK   82  A    between atoms: _193  and  _195
REMARK   83  A    between atoms: _195  and  _196
REMARK   84  A    between atoms: _195  and  _198
REMARK   85  A    between atoms: _198  and  _199
REMARK   86  A    between atoms: _199  and  _200
REMARK   87  A    between atoms: _202  and  _204
REMARK   88  A    between atoms: _204  and  _205
REMARK   89  A    between atoms: _204  and  _207
REMARK   90  A    between atoms: _207  and  _208
REMARK   91  A    between atoms: _213  and  _214
REMARK   92  A    between atoms: _216  and  _218
REMARK   93  A    between atoms: _218  and  _219
REMARK   94  A    between atoms: _218  and  _221
REMARK   95  A    between atoms: _221  and  _222
REMARK   96  A    between atoms: _222  and  _223
REMARK   97  A    between atoms: _223  and  _224
REMARK   98  A    between atoms: _224  and  _225
REMARK   99  A    between atoms: _229  and  _231
REMARK  100  A    between atoms: _231  and  _232
REMARK  101  A    between atoms: _231  and  _234
REMARK  102  A    between atoms: _236  and  _238
REMARK  103  A    between atoms: _238  and  _239
REMARK  104  A    between atoms: _238  and  _241
REMARK  105  A    between atoms: _241  and  _242
REMARK  106  A    between atoms: _242  and  _243
REMARK  107  A    between atoms: _246  and  _248
REMARK  108  A    between atoms: _248  and  _249
REMARK  109  A    between atoms: _248  and  _251
REMARK  110  A    between atoms: _251  and  _252
REMARK  111  A    between atoms: _257  and  _259
REMARK  112  A    between atoms: _259  and  _260
REMARK  113  A    between atoms: _263  and  _265
REMARK  114  A    between atoms: _265  and  _266
REMARK  115  A    between atoms: _265  and  _268
REMARK  116  A    between atoms: _268  and  _269
REMARK  117  A    between atoms: _269  and  _270
REMARK  118  A    between atoms: _272  and  _274
REMARK  119  A    between atoms: _274  and  _275
REMARK  120  A    between atoms: _274  and  _277
REMARK  121  A    between atoms: _277  and  _278
REMARK  122  A    between atoms: _288  and  _290
REMARK  123  A    between atoms: _290  and  _291
REMARK  124  A    between atoms: _290  and  _293
REMARK  125  A    between atoms: _293  and  _294
REMARK  126  A    between atoms: _297  and  _299
REMARK  127  A    between atoms: _299  and  _300
REMARK  128  A    between atoms: _299  and  _302
REMARK  129  A    between atoms: _302  and  _303
REMARK  130  A    between atoms: _303  and  _304
REMARK  131  A    between atoms: _309  and  _311
REMARK  132  A    between atoms: _311  and  _312
REMARK  133  A    between atoms: _311  and  _314
REMARK  134  A    between atoms: _314  and  _315
REMARK  135  A    between atoms: _318  and  _320
REMARK  136  A    between atoms: _320  and  _321
REMARK  137  A    between atoms: _320  and  _323
REMARK  138  A    between atoms: _323  and  _324
REMARK  139  A    between atoms: _324  and  _325
REMARK  140  A    between atoms: _330  and  _332
REMARK  141  A    between atoms: _332  and  _333
REMARK  142  A    between atoms: _332  and  _335
REMARK  143  A    between atoms: _333  and  _334
REMARK  144  A    between atoms: _333  and  _342
REMARK  145  A    between atoms: _335  and  _336
REMARK  146  A    between atoms: _342  and  _344
REMARK  147  A    between atoms: _344  and  _345
REMARK  148  A    between atoms: _344  and  _347
REMARK  149  A    between atoms: _349  and  _351
REMARK  150  A    between atoms: _351  and  _352
REMARK  151  A    between atoms: _351  and  _354
REMARK  152  A    between atoms: _354  and  _355
REMARK  153  A    between atoms: _355  and  _356
REMARK  154  A    between atoms: _358  and  _360
REMARK  155  A    between atoms: _360  and  _361
REMARK  156  A    between atoms: _360  and  _363
REMARK  157  A    between atoms: _363  and  _364
REMARK  158  A    between atoms: _369  and  _371
REMARK  159  A    between atoms: _371  and  _372
REMARK  160  A    between atoms: _374  and  _376
REMARK  161  A    between atoms: _376  and  _377
REMARK  162  A    between atoms: _376  and  _379
REMARK  163  A    between atoms: _382  and  _384
REMARK  164  A    between atoms: _384  and  _385
REMARK  165  A    between atoms: _384  and  _387
REMARK  166  A    between atoms: _387  and  _388
REMARK  167  A    between atoms: _391  and  _393
REMARK  168  A    between atoms: _393  and  _394
REMARK  169  A    between atoms: _393  and  _396
REMARK  170  A    between atoms: _396  and  _397
REMARK  171  A    between atoms: _399  and  _401
REMARK  172  A    between atoms: _401  and  _402
REMARK  173  A    between atoms: _401  and  _404
REMARK  174  A    between atoms: _404  and  _405
REMARK  175  A    between atoms: _415  and  _417
REMARK  176  A    between atoms: _417  and  _418
REMARK  177  A    between atoms: _417  and  _420
REMARK  178  A    between atoms: _420  and  _421
REMARK  179  A    between atoms: _423  and  _425
REMARK  180  A    between atoms: _425  and  _426
REMARK  181  A    between atoms: _425  and  _428
REMARK  182  A    between atoms: _428  and  _429
REMARK  183  A    between atoms: _429  and  _430
REMARK  184  A    between atoms: _433  and  _435
REMARK  185  A    between atoms: _435  and  _436
REMARK  186  A    between atoms: _435  and  _438
REMARK  187  A    between atoms: _438  and  _439
REMARK  188  A    between atoms: _439  and  _440
REMARK  189  A    between atoms: _440  and  _441
REMARK                            x       y       z     vdW  Elec       q    Type
REMARK                         _______ _______ _______ _____ _____    ______ ____
ROOT
ATOM      1  CA  GLU A   1      -7.770 -21.533 -17.229  0.00  0.00    +0.134 C 
ENDROOT
BRANCH   1   2
ATOM      2  N   GLU A   1      -6.530 -22.140 -16.706  0.00  0.00    -0.239 NA
ATOM      3  H   GLU A   1      -6.227 -23.061 -17.082  0.00  0.00    +0.142 HD
ENDBRANCH   1   2
BRANCH   1   4
ATOM      4  C   GLU A   1      -9.027 -21.938 -16.446  0.00  0.00    +0.224 C 
ATOM      5  O   GLU A   1     -10.030 -21.214 -16.443  0.00  0.00    -0.287 OA
ENDBRANCH   1   4
BRANCH   1   6
ATOM      6  CB  GLU A   1      -7.915 -21.858 -18.729  0.00  0.00    +0.037 C 
BRANCH   6   7
ATOM      7  CG  GLU A   1      -9.187 -21.336 -19.433  0.00  0.00    +0.116 C 
BRANCH   7   8
ATOM      8  CD  GLU A   1     -10.425 -22.177 -19.151  0.00  0.00    +0.365 C 
ATOM      9  OE2 GLU A   1     -10.288 -23.391 -18.867  0.00  0.00    -0.246 OA
ATOM     10  OE1 GLU A   1     -11.539 -21.618 -19.198  0.00  0.00    -0.246 OA
ENDBRANCH   7   8
ENDBRANCH   6   7
ENDBRANCH   1   6
TORSDOF 5
REMARK  Name = ../refined-set-2016/3t0b/3t0b_pocket.pdb
REMARK  189 active torsions:
REMARK  status: ('A' for Active; 'I' for Inactive)
REMARK    1  A    between atoms: _1  and  _3
REMARK    2  A    between atoms: _3  and  _4
REMARK    3  A    between atoms: _3  and  _6
REMARK    4  A    between atoms: _6  and  _7
REMARK    5  A    between atoms: _12  and  _13
REMARK    6  A    between atoms: _15  and  _17
REMARK    7  A    between atoms: _17  and  _18
REMARK    8  A    between atoms: _17  and  _20
REMARK    9  A    between atoms: _20  and  _21
REMARK   10  A    between atoms: _24  and  _26
REMARK   11  A    between atoms: _26  and  _27
REMARK   12  A    between atoms: _26  and  _29
REMARK   13  A    between atoms: _29  and  _30
REMARK   14  A    between atoms: _35  and  _37
REMARK   15  A    between atoms: _37  and  _38
REMARK   16  A    between atoms: _37  and  _40
REMARK   17  A    between atoms: _43  and  _45
REMARK   18  A    between atoms: _45  and  _46
REMARK   19  A    between atoms: _45  and  _48
REMARK   20  A    between atoms: _48  and  _49
REMARK   21  A    between atoms: _52  and  _54
REMARK   22  A    between atoms: _54  and  _55
REMARK   23  A    between atoms: _54  and  _57
REMARK   24  A    between atoms: _57  and  _58
REMARK   25  A    between atoms: _58  and  _59
REMARK   26  A    between atoms: _64  and  _66
REMARK   27  A    between atoms: _66  and  _67
REMARK   28  A    between atoms: _66  and  _69
REMARK   29  A    between atoms: _69  and  _70
REMARK   30  A    between atoms: _73  and  _75
REMARK   31  A    between atoms: _75  and  _76
REMARK   32  A    between atoms: _75  and  _78
REMARK   33  A    between atoms: _78  and  _79
REMARK   34  A    between atoms: _79  and  _80
REMARK   35  A    between atoms: _82  and  _84
REMARK   36  A    between atoms: _84  and  _85
REMARK   37  A    between atoms: _84  and  _87
REMARK   38  A    between atoms: _87  and  _88
REMARK   39  A    between atoms: _93  and  _95
REMARK   40  A    between atoms: _95  and  _96
REMARK   41  A    between atoms: _95  and  _98
REMARK   42  A    between atoms: _98  and  _99
REMARK   43  A    between atoms: _104  and  _106
REMARK   44  A    between atoms: _106  and  _107
REMARK   45  A    between atoms: _106  and  _109
REMARK   46  A    between atoms: _109  and  _110
REMARK   47  A    between atoms: _110  and  _111
REMARK   48  A    between atoms: _111  and  _112
REMARK   49  A    between atoms: _121  and  _123
REMARK   50  A    between atoms: _123  and  _124
REMARK   51  A    between atoms: _123  and  _126
REMARK   52  A    between atoms: _126  and  _127
REMARK   53  A    between atoms: _132  and  _134
REMARK   54  A    between atoms: _134  and  _135
REMARK   55  A    between atoms: _134  and  _137
REMARK   56  A    between atoms: _137  and  _138
REMARK   57  A    between atoms: _138  and  _139
REMARK   58  A    between atoms: _142  and  _144
REMARK   59  A    between atoms: _144  and  _145
REMARK   60  A    between atoms: _144  and  _147
REMARK   61  A    between atoms: _147  and  _148
REMARK   62  A    between atoms: _149  and  MG_450
REMARK   63  A    between atoms: _153  and  _155
REMARK   64  A    between atoms: _155  and  _156
REMARK   65  A    between atoms: _155  and  _158
REMARK   66  A    between atoms: _158  and  _159
REMARK   67  A    between atoms: _159  and  _160
REMARK   68  A    between atoms: _162  and  _164
REMARK   69  A    between atoms: _164  and  _165
REMARK   70  A    between atoms: _164  and  _167
REMARK   71  A    between atoms: _167  and  _168
REMARK   72  A    between atoms: _173  and  _175
REMARK   73  A    between atoms: _175  and  _176
REMARK   74  A    between atoms: _175  and  _178
REMARK   75  A    between atoms: _178  and  _179
REMARK   76  A    between atoms: _179  and  _180
REMARK   77  A    between atoms: _183  and  _185
REMARK   78  A    between atoms: _185  and  _186
REMARK   79  A    between atoms: _185  and  _188
REMARK   80  A    between atoms: _188  and  _189
REMARK   81  A    between atoms: _189  and  _190
REMARK   82  A    between atoms: _193  and  _195
REMARK   83  A    between atoms: _195  and  _196
REMARK   84  A    between atoms: _195  and  _198
REMARK   85  A    between atoms: _198  and  _199
REMARK   86  A    between atoms: _199  and  _200
REMARK   87  A    between atoms: _202  and  _204
REMARK   88  A    between atoms: _204  and  _205
REMARK   89  A    between atoms: _204  and  _207
REMARK   90  A    between atoms: _207  and  _208
REMARK   91  A    between atoms: _213  and  _214
REMARK   92  A    between atoms: _216  and  _218
REMARK   93  A    between atoms: _218  and  _219
REMARK   94  A    between atoms: _218  and  _221
REMARK   95  A    between atoms: _221  and  _222
REMARK   96  A    between atoms: _222  and  _223
REMARK   97  A    between atoms: _223  and  _224
REMARK   98  A    between atoms: _224  and  _225
REMARK   99  A    between atoms: _229  and  _231
REMARK  100  A    between atoms: _231  and  _232
REMARK  101  A    between atoms: _231  and  _234
REMARK  102  A    between atoms: _236  and  _238
REMARK  103  A    between atoms: _238  and  _239
REMARK  104  A    between atoms: _238  and  _241
REMARK  105  A    between atoms: _241  and  _242
REMARK  106  A    between atoms: _242  and  _243
REMARK  107  A    between atoms: _246  and  _248
REMARK  108  A    between atoms: _248  and  _249
REMARK  109  A    between atoms: _248  and  _251
REMARK  110  A    between atoms: _251  and  _252
REMARK  111  A    between atoms: _257  and  _259
REMARK  112  A    between atoms: _259  and  _260
REMARK  113  A    between atoms: _263  and  _265
REMARK  114  A    between atoms: _265  and  _266
REMARK  115  A    between atoms: _265  and  _268
REMARK  116  A    between atoms: _268  and  _269
REMARK  117  A    between atoms: _269  and  _270
REMARK  118  A    between atoms: _272  and  _274
REMARK  119  A    between atoms: _274  and  _275
REMARK  120  A    between atoms: _274  and  _277
REMARK  121  A    between atoms: _277  and  _278
REMARK  122  A    between atoms: _288  and  _290
REMARK  123  A    between atoms: _290  and  _291
REMARK  124  A    between atoms: _290  and  _293
REMARK  125  A    between atoms: _293  and  _294
REMARK  126  A    between atoms: _297  and  _299
REMARK  127  A    between atoms: _299  and  _300
REMARK  128  A    between atoms: _299  and  _302
REMARK  129  A    between atoms: _302  and  _303
REMARK  130  A    between atoms: _303  and  _304
REMARK  131  A    between atoms: _309  and  _311
REMARK  132  A    between atoms: _311  and  _312
REMARK  133  A    between atoms: _311  and  _314
REMARK  134  A    between atoms: _314  and  _315
REMARK  135  A    between atoms: _318  and  _320
REMARK  136  A    between atoms: _320  and  _321
REMARK  137  A    between atoms: _320  and  _323
REMARK  138  A    between atoms: _323  and  _324
REMARK  139  A    between atoms: _324  and  _325
REMARK  140  A    between atoms: _330  and  _332
REMARK  141  A    between atoms: _332  and  _333
REMARK  142  A    between atoms: _332  and  _335
REMARK  143  A    between atoms: _333  and  _334
REMARK  144  A    between atoms: _333  and  _342
REMARK  145  A    between atoms: _335  and  _336
REMARK  146  A    between atoms: _342  and  _344
REMARK  147  A    between atoms: _344  and  _345
REMARK  148  A    between atoms: _344  and  _347
REMARK  149  A    between atoms: _349  and  _351
REMARK  150  A    between atoms: _351  and  _352
REMARK  151  A    between atoms: _351  and  _354
REMARK  152  A    between atoms: _354  and  _355
REMARK  153  A    between atoms: _355  and  _356
REMARK  154  A    between atoms: _358  and  _360
REMARK  155  A    between atoms: _360  and  _361
REMARK  156  A    between atoms: _360  and  _363
REMARK  157  A    between atoms: _363  and  _364
REMARK  158  A    between atoms: _369  and  _371
REMARK  159  A    between atoms: _371  and  _372
REMARK  160  A    between atoms: _374  and  _376
REMARK  161  A    between atoms: _376  and  _377
REMARK  162  A    between atoms: _376  and  _379
REMARK  163  A    between atoms: _382  and  _384
REMARK  164  A    between atoms: _384  and  _385
REMARK  165  A    between atoms: _384  and  _387
REMARK  166  A    between atoms: _387  and  _388
REMARK  167  A    between atoms: _391  and  _393
REMARK  168  A    between atoms: _393  and  _394
REMARK  169  A    between atoms: _393  and  _396
REMARK  170  A    between atoms: _396  and  _397
REMARK  171  A    between atoms: _399  and  _401
REMARK  172  A    between atoms: _401  and  _402
REMARK  173  A    between atoms: _401  and  _404
REMARK  174  A    between atoms: _404  and  _405
REMARK  175  A    between atoms: _415  and  _417
REMARK  176  A    between atoms: _417  and  _418
REMARK  177  A    between atoms: _417  and  _420
REMARK  178  A    between atoms: _420  and  _421
REMARK  179  A    between atoms: _423  and  _425
REMARK  180  A    between atoms: _425  and  _426
REMARK  181  A    between atoms: _425  and  _428
REMARK  182  A    between atoms: _428  and  _429
REMARK  183  A    between atoms: _429  and  _430
REMARK  184  A    between atoms: _433  and  _435
REMARK  185  A    between atoms: _435  and  _436
REMARK  186  A    between atoms: _435  and  _438
REMARK  187  A    between atoms: _438  and  _439
REMARK  188  A    between atoms: _439  and  _440
REMARK  189  A    between atoms: _440  and  _441
REMARK                            x       y       z     vdW  Elec       q    Type
REMARK                         _______ _______ _______ _____ _____    ______ ____
ROOT
ATOM      1  CA  TYR A   2     -12.686 -18.791 -26.814  0.00  0.00    +0.141 C 
ENDROOT
BRANCH   1   4
ATOM      2  C   MET A   1     -11.762 -19.618 -24.679  0.00  0.00    +0.238 C 
ATOM      3  O   MET A   1     -12.856 -19.655 -24.123  0.00  0.00    -0.274 OA
ATOM      4  N   TYR A   2     -11.576 -19.137 -25.908  0.00  0.00    -0.298 N 
ATOM      5  H   TYR A   2     -10.601 -18.999 -26.244  0.00  0.00    +0.150 HD
BRANCH   2   6
ATOM      6  CA  MET A   1     -10.512 -20.102 -23.951  0.00  0.00    +0.146 C 
BRANCH   6   7
ATOM      7  N   MET A   1     -10.404 -19.396 -22.691  0.00  0.00    -0.238 NA
ATOM      8  H   MET A   1     -11.106 -19.567 -21.943  0.00  0.00    +0.142 HD
ENDBRANCH   6   7
BRANCH   6   9
ATOM      9  CB  MET A   1     -10.495 -21.626 -23.763  0.00  0.00    +0.038 C 
BRANCH   9  10
ATOM     10  CG  MET A   1     -11.505 -22.196 -22.758  0.00  0.00    +0.060 C 
BRANCH  10  11
ATOM     11  SD  MET A   1     -11.539 -24.020 -22.723  0.00  0.00    -0.139 S 
ATOM     12  CE  MET A   1      -9.906 -24.412 -22.092  0.00  0.00    +0.069 C 
ENDBRANCH  10  11
ENDBRANCH   9  10
ENDBRANCH   6   9
ENDBRANCH   2   6
ENDBRANCH   1   4
BRANCH   1  13
ATOM     13  C   TYR A   2     -13.494 -17.570 -26.367  0.00  0.00    +0.227 C 
ATOM     14  O   TYR A   2     -14.651 -17.393 -26.758  0.00  0.00    -0.286 OA
ENDBRANCH   1  13
BRANCH   1  15
ATOM     15  CB  TYR A   2     -13.581 -20.014 -27.085  0.00  0.00    +0.054 C 
BRANCH  15  16
ATOM     16  CG  TYR A   2     -12.748 -21.236 -27.385  0.00  0.00    -0.020 A 
ATOM     17  CD2 TYR A   2     -12.630 -22.267 -26.456  0.00  0.00    -0.001 A 
ATOM     18  CE2 TYR A   2     -11.835 -23.374 -26.719  0.00  0.00    +0.036 A 
ATOM     19  CZ  TYR A   2     -11.136 -23.447 -27.904  0.00  0.00    +0.134 A 
ATOM     20  CE1 TYR A   2     -11.223 -22.432 -28.837  0.00  0.00    +0.036 A 
ATOM     21  CD1 TYR A   2     -12.021 -21.328 -28.571  0.00  0.00    -0.001 A 
BRANCH  19  22
ATOM     22  OH  TYR A   2     -10.344 -24.538 -28.165  0.00  0.00    -0.506 OA
ATOM     23  HH  TYR A   2     -10.391 -25.168 -27.403  0.00  0.00    +0.292 HD
ENDBRANCH  19  22
ENDBRANCH  15  16
ENDBRANCH   1  15
TORSDOF 10
REMARK  Name = ../refined-set-2016/3t0b/3t0b_pocket.pdb
REMARK  189 active torsions:
REMARK  status: ('A' for Active; 'I' for Inactive)
REMARK    1  A    between atoms: _1  and  _3
REMARK    2  A    between atoms: _3  and  _4
REMARK    3  A    between atoms: _3  and  _6
REMARK    4  A    between atoms: _6  and  _7
REMARK    5  A    between atoms: _12  and  _13
REMARK    6  A    between atoms: _15  and  _17
REMARK    7  A    between atoms: _17  and  _18
REMARK    8  A    between atoms: _17  and  _20
REMARK    9  A    between atoms: _20  and  _21
REMARK   10  A    between atoms: _24  and  _26
REMARK   11  A    between atoms: _26  and  _27
REMARK   12  A    between atoms: _26  and  _29
REMARK   13  A    between atoms: _29  and  _30
REMARK   14  A    between atoms: _35  and  _37
REMARK   15  A    between atoms: _37  and  _38
REMARK   16  A    between atoms: _37  and  _40
REMARK   17  A    between atoms: _43  and  _45
REMARK   18  A    between atoms: _45  and  _46
REMARK   19  A    between atoms: _45  and  _48
REMARK   20  A    between atoms: _48  and  _49
REMARK   21  A    between atoms: _52  and  _54
REMARK   22  A    between atoms: _54  and  _55
REMARK   23  A    between atoms: _54  and  _57
REMARK   24  A    between atoms: _57  and  _58
REMARK   25  A    between atoms: _58  and  _59
REMARK   26  A    between atoms: _64  and  _66
REMARK   27  A    between atoms: _66  and  _67
REMARK   28  A    between atoms: _66  and  _69
REMARK   29  A    between atoms: _69  and  _70
REMARK   30  A    between atoms: _73  and  _75
REMARK   31  A    between atoms: _75  and  _76
REMARK   32  A    between atoms: _75  and  _78
REMARK   33  A    between atoms: _78  and  _79
REMARK   34  A    between atoms: _79  and  _80
REMARK   35  A    between atoms: _82  and  _84
REMARK   36  A    between atoms: _84  and  _85
REMARK   37  A    between atoms: _84  and  _87
REMARK   38  A    between atoms: _87  and  _88
REMARK   39  A    between atoms: _93  and  _95
REMARK   40  A    between atoms: _95  and  _96
REMARK   41  A    between atoms: _95  and  _98
REMARK   42  A    between atoms: _98  and  _99
REMARK   43  A    between atoms: _104  and  _106
REMARK   44  A    between atoms: _106  and  _107
REMARK   45  A    between atoms: _106  and  _109
REMARK   46  A    between atoms: _109  and  _110
REMARK   47  A    between atoms: _110  and  _111
REMARK   48  A    between atoms: _111  and  _112
REMARK   49  A    between atoms: _121  and  _123
REMARK   50  A    between atoms: _123  and  _124
REMARK   51  A    between atoms: _123  and  _126
REMARK   52  A    between atoms: _126  and  _127
REMARK   53  A    between atoms: _132  and  _134
REMARK   54  A    between atoms: _134  and  _135
REMARK   55  A    between atoms: _134  and  _137
REMARK   56  A    between atoms: _137  and  _138
REMARK   57  A    between atoms: _138  and  _139
REMARK   58  A    between atoms: _142  and  _144
REMARK   59  A    between atoms: _144  and  _145
REMARK   60  A    between atoms: _144  and  _147
REMARK   61  A    between atoms: _147  and  _148
REMARK   62  A    between atoms: _149  and  MG_450
REMARK   63  A    between atoms: _153  and  _155
REMARK   64  A    between atoms: _155  and  _156
REMARK   65  A    between atoms: _155  and  _158
REMARK   66  A    between atoms: _158  and  _159
REMARK   67  A    between atoms: _159  and  _160
REMARK   68  A    between atoms: _162  and  _164
REMARK   69  A    between atoms: _164  and  _165
REMARK   70  A    between atoms: _164  and  _167
REMARK   71  A    between atoms: _167  and  _168
REMARK   72  A    between atoms: _173  and  _175
REMARK   73  A    between atoms: _175  and  _176
REMARK   74  A    between atoms: _175  and  _178
REMARK   75  A    between atoms: _178  and  _179
REMARK   76  A    between atoms: _179  and  _180
REMARK   77  A    between atoms: _183  and  _185
REMARK   78  A    between atoms: _185  and  _186
REMARK   79  A    between atoms: _185  and  _188
REMARK   80  A    between atoms: _188  and  _189
REMARK   81  A    between atoms: _189  and  _190
REMARK   82  A    between atoms: _193  and  _195
REMARK   83  A    between atoms: _195  and  _196
REMARK   84  A    between atoms: _195  and  _198
REMARK   85  A    between atoms: _198  and  _199
REMARK   86  A    between atoms: _199  and  _200
REMARK   87  A    between atoms: _202  and  _204
REMARK   88  A    between atoms: _204  and  _205
REMARK   89  A    between atoms: _204  and  _207
REMARK   90  A    between atoms: _207  and  _208
REMARK   91  A    between atoms: _213  and  _214
REMARK   92  A    between atoms: _216  and  _218
REMARK   93  A    between atoms: _218  and  _219
REMARK   94  A    between atoms: _218  and  _221
REMARK   95  A    between atoms: _221  and  _222
REMARK   96  A    between atoms: _222  and  _223
REMARK   97  A    between atoms: _223  and  _224
REMARK   98  A    between atoms: _224  and  _225
REMARK   99  A    between atoms: _229  and  _231
REMARK  100  A    between atoms: _231  and  _232
REMARK  101  A    between atoms: _231  and  _234
REMARK  102  A    between atoms: _236  and  _238
REMARK  103  A    between atoms: _238  and  _239
REMARK  104  A    between atoms: _238  and  _241
REMARK  105  A    between atoms: _241  and  _242
REMARK  106  A    between atoms: _242  and  _243
REMARK  107  A    between atoms: _246  and  _248
REMARK  108  A    between atoms: _248  and  _249
REMARK  109  A    between atoms: _248  and  _251
REMARK  110  A    between atoms: _251  and  _252
REMARK  111  A    between atoms: _257  and  _259
REMARK  112  A    between atoms: _259  and  _260
REMARK  113  A    between atoms: _263  and  _265
REMARK  114  A    between atoms: _265  and  _266
REMARK  115  A    between atoms: _265  and  _268
REMARK  116  A    between atoms: _268  and  _269
REMARK  117  A    between atoms: _269  and  _270
REMARK  118  A    between atoms: _272  and  _274
REMARK  119  A    between atoms: _274  and  _275
REMARK  120  A    between atoms: _274  and  _277
REMARK  121  A    between atoms: _277  and  _278
REMARK  122  A    between atoms: _288  and  _290
REMARK  123  A    between atoms: _290  and  _291
REMARK  124  A    between atoms: _290  and  _293
REMARK  125  A    between atoms: _293  and  _294
REMARK  126  A    between atoms: _297  and  _299
REMARK  127  A    between atoms: _299  and  _300
REMARK  128  A    between atoms: _299  and  _302
REMARK  129  A    between atoms: _302  and  _303
REMARK  130  A    between atoms: _303  and  _304
REMARK  131  A    between atoms: _309  and  _311
REMARK  132  A    between atoms: _311  and  _312
REMARK  133  A    between atoms: _311  and  _314
REMARK  134  A    between atoms: _314  and  _315
REMARK  135  A    between atoms: _318  and  _320
REMARK  136  A    between atoms: _320  and  _321
REMARK  137  A    between atoms: _320  and  _323
REMARK  138  A    between atoms: _323  and  _324
REMARK  139  A    between atoms: _324  and  _325
REMARK  140  A    between atoms: _330  and  _332
REMARK  141  A    between atoms: _332  and  _333
REMARK  142  A    between atoms: _332  and  _335
REMARK  143  A    between atoms: _333  and  _334
REMARK  144  A    between atoms: _333  and  _342
REMARK  145  A    between atoms: _335  and  _336
REMARK  146  A    between atoms: _342  and  _344
REMARK  147  A    between atoms: _344  and  _345
REMARK  148  A    between atoms: _344  and  _347
REMARK  149  A    between atoms: _349  and  _351
REMARK  150  A    between atoms: _351  and  _352
REMARK  151  A    between atoms: _351  and  _354
REMARK  152  A    between atoms: _354  and  _355
REMARK  153  A    between atoms: _355  and  _356
REMARK  154  A    between atoms: _358  and  _360
REMARK  155  A    between atoms: _360  and  _361
REMARK  156  A    between atoms: _360  and  _363
REMARK  157  A    between atoms: _363  and  _364
REMARK  158  A    between atoms: _369  and  _371
REMARK  159  A    between atoms: _371  and  _372
REMARK  160  A    between atoms: _374  and  _376
REMARK  161  A    between atoms: _376  and  _377
REMARK  162  A    between atoms: _376  and  _379
REMARK  163  A    between atoms: _382  and  _384
REMARK  164  A    between atoms: _384  and  _385
REMARK  165  A    between atoms: _384  and  _387
REMARK  166  A    between atoms: _387  and  _388
REMARK  167  A    between atoms: _391  and  _393
REMARK  168  A    between atoms: _393  and  _394
REMARK  169  A    between atoms: _393  and  _396
REMARK  170  A    between atoms: _396  and  _397
REMARK  171  A    between atoms: _399  and  _401
REMARK  172  A    between atoms: _401  and  _402
REMARK  173  A    between atoms: _401  and  _404
REMARK  174  A    between atoms: _404  and  _405
REMARK  175  A    between atoms: _415  and  _417
REMARK  176  A    between atoms: _417  and  _418
REMARK  177  A    between atoms: _417  and  _420
REMARK  178  A    between atoms: _420  and  _421
REMARK  179  A    between atoms: _423  and  _425
REMARK  180  A    between atoms: _425  and  _426
REMARK  181  A    between atoms: _425  and  _428
REMARK  182  A    between atoms: _428  and  _429
REMARK  183  A    between atoms: _429  and  _430
REMARK  184  A    between atoms: _433  and  _435
REMARK  185  A    between atoms: _435  and  _436
REMARK  186  A    between atoms: _435  and  _438
REMARK  187  A    between atoms: _438  and  _439
REMARK  188  A    between atoms: _439  and  _440
REMARK  189  A    between atoms: _440  and  _441
REMARK                            x       y       z     vdW  Elec       q    Type
REMARK                         _______ _______ _______ _____ _____    ______ ____
ROOT
ATOM      1  CG  LYS A   1     -15.850 -17.657 -21.844  0.00  0.00    -0.000 C 
ENDROOT
BRANCH   1   2
ATOM      2  CB  LYS A   1     -16.206 -16.210 -22.122  0.00  0.00    +0.025 C 
BRANCH   2   3
ATOM      3  CA  LYS A   1     -16.214 -15.280 -20.905  0.00  0.00    +0.133 C 
BRANCH   3   4
ATOM      4  N   LYS A   1     -17.287 -15.610 -19.989  0.00  0.00    -0.239 NA
ATOM      5  H   LYS A   1     -18.248 -15.733 -20.368  0.00  0.00    +0.142 HD
ENDBRANCH   3   4
BRANCH   3   6
ATOM      6  C   LYS A   1     -16.478 -13.866 -21.365  0.00  0.00    +0.224 C 
ATOM      7  O   LYS A   1     -17.279 -13.641 -22.283  0.00  0.00    -0.287 OA
ENDBRANCH   3   6
ENDBRANCH   2   3
ENDBRANCH   1   2
BRANCH   1   8
ATOM      8  CD  LYS A   1     -15.626 -18.389 -23.162  0.00  0.00    -0.024 C 
BRANCH   8   9
ATOM      9  CE  LYS A   1     -15.822 -19.888 -23.020  0.00  0.00    -0.086 C 
BRANCH   9  10
ATOM     10  NZ  LYS A   1     -14.903 -20.461 -21.997  0.00  0.00    +0.380 N 
ATOM     11  HZ1 LYS A   1     -15.089 -20.014 -21.076  0.00  0.00    -0.089 HD
ATOM     12  HZ2 LYS A   1     -15.063 -21.486 -21.925  0.00  0.00    -0.089 HD
ATOM     13  HZ3 LYS A   1     -13.918 -20.281 -22.278  0.00  0.00    -0.089 HD
ENDBRANCH   9  10
ENDBRANCH   8   9
ENDBRANCH   1   8
TORSDOF 7
REMARK  Name = ../refined-set-2016/3t0b/3t0b_pocket.pdb
REMARK  189 active torsions:
REMARK  status: ('A' for Active; 'I' for Inactive)
REMARK    1  A    between atoms: _1  and  _3
REMARK    2  A    between atoms: _3  and  _4
REMARK    3  A    between atoms: _3  and  _6
REMARK    4  A    between atoms: _6  and  _7
REMARK    5  A    between atoms: _12  and  _13
REMARK    6  A    between atoms: _15  and  _17
REMARK    7  A    between atoms: _17  and  _18
REMARK    8  A    between atoms: _17  and  _20
REMARK    9  A    between atoms: _20  and  _21
REMARK   10  A    between atoms: _24  and  _26
REMARK   11  A    between atoms: _26  and  _27
REMARK   12  A    between atoms: _26  and  _29
REMARK   13  A    between atoms: _29  and  _30
REMARK   14  A    between atoms: _35  and  _37
REMARK   15  A    between atoms: _37  and  _38
REMARK   16  A    between atoms: _37  and  _40
REMARK   17  A    between atoms: _43  and  _45
REMARK   18  A    between atoms: _45  and  _46
REMARK   19  A    between atoms: _45  and  _48
REMARK   20  A    between atoms: _48  and  _49
REMARK   21  A    between atoms: _52  and  _54
REMARK   22  A    between atoms: _54  and  _55
REMARK   23  A    between atoms: _54  and  _57
REMARK   24  A    between atoms: _57  and  _58
REMARK   25  A    between atoms: _58  and  _59
REMARK   26  A    between atoms: _64  and  _66
REMARK   27  A    between atoms: _66  and  _67
REMARK   28  A    between atoms: _66  and  _69
REMARK   29  A    between atoms: _69  and  _70
REMARK   30  A    between atoms: _73  and  _75
REMARK   31  A    between atoms: _75  and  _76
REMARK   32  A    between atoms: _75  and  _78
REMARK   33  A    between atoms: _78  and  _79
REMARK   34  A    between atoms: _79  and  _80
REMARK   35  A    between atoms: _82  and  _84
REMARK   36  A    between atoms: _84  and  _85
REMARK   37  A    between atoms: _84  and  _87
REMARK   38  A    between atoms: _87  and  _88
REMARK   39  A    between atoms: _93  and  _95
REMARK   40  A    between atoms: _95  and  _96
REMARK   41  A    between atoms: _95  and  _98
REMARK   42  A    between atoms: _98  and  _99
REMARK   43  A    between atoms: _104  and  _106
REMARK   44  A    between atoms: _106  and  _107
REMARK   45  A    between atoms: _106  and  _109
REMARK   46  A    between atoms: _109  and  _110
REMARK   47  A    between atoms: _110  and  _111
REMARK   48  A    between atoms: _111  and  _112
REMARK   49  A    between atoms: _121  and  _123
REMARK   50  A    between atoms: _123  and  _124
REMARK   51  A    between atoms: _123  and  _126
REMARK   52  A    between atoms: _126  and  _127
REMARK   53  A    between atoms: _132  and  _134
REMARK   54  A    between atoms: _134  and  _135
REMARK   55  A    between atoms: _134  and  _137
REMARK   56  A    between atoms: _137  and  _138
REMARK   57  A    between atoms: _138  and  _139
REMARK   58  A    between atoms: _142  and  _144
REMARK   59  A    between atoms: _144  and  _145
REMARK   60  A    between atoms: _144  and  _147
REMARK   61  A    between atoms: _147  and  _148
REMARK   62  A    between atoms: _149  and  MG_450
REMARK   63  A    between atoms: _153  and  _155
REMARK   64  A    between atoms: _155  and  _156
REMARK   65  A    between atoms: _155  and  _158
REMARK   66  A    between atoms: _158  and  _159
REMARK   67  A    between atoms: _159  and  _160
REMARK   68  A    between atoms: _162  and  _164
REMARK   69  A    between atoms: _164  and  _165
REMARK   70  A    between atoms: _164  and  _167
REMARK   71  A    between atoms: _167  and  _168
REMARK   72  A    between atoms: _173  and  _175
REMARK   73  A    between atoms: _175  and  _176
REMARK   74  A    between atoms: _175  and  _178
REMARK   75  A    between atoms: _178  and  _179
REMARK   76  A    between atoms: _179  and  _180
REMARK   77  A    between atoms: _183  and  _185
REMARK   78  A    between atoms: _185  and  _186
REMARK   79  A    between atoms: _185  and  _188
REMARK   80  A    between atoms: _188  and  _189
REMARK   81  A    between atoms: _189  and  _190
REMARK   82  A    between atoms: _193  and  _195
REMARK   83  A    between atoms: _195  and  _196
REMARK   84  A    between atoms: _195  and  _198
REMARK   85  A    between atoms: _198  and  _199
REMARK   86  A    between atoms: _199  and  _200
REMARK   87  A    between atoms: _202  and  _204
REMARK   88  A    between atoms: _204  and  _205
REMARK   89  A    between atoms: _204  and  _207
REMARK   90  A    between atoms: _207  and  _208
REMARK   91  A    between atoms: _213  and  _214
REMARK   92  A    between atoms: _216  and  _218
REMARK   93  A    between atoms: _218  and  _219
REMARK   94  A    between atoms: _218  and  _221
REMARK   95  A    between atoms: _221  and  _222
REMARK   96  A    between atoms: _222  and  _223
REMARK   97  A    between atoms: _223  and  _224
REMARK   98  A    between atoms: _224  and  _225
REMARK   99  A    between atoms: _229  and  _231
REMARK  100  A    between atoms: _231  and  _232
REMARK  101  A    between atoms: _231  and  _234
REMARK  102  A    between atoms: _236  and  _238
REMARK  103  A    between atoms: _238  and  _239
REMARK  104  A    between atoms: _238  and  _241
REMARK  105  A    between atoms: _241  and  _242
REMARK  106  A    between atoms: _242  and  _243
REMARK  107  A    between atoms: _246  and  _248
REMARK  108  A    between atoms: _248  and  _249
REMARK  109  A    between atoms: _248  and  _251
REMARK  110  A    between atoms: _251  and  _252
REMARK  111  A    between atoms: _257  and  _259
REMARK  112  A    between atoms: _259  and  _260
REMARK  113  A    between atoms: _263  and  _265
REMARK  114  A    between atoms: _265  and  _266
REMARK  115  A    between atoms: _265  and  _268
REMARK  116  A    between atoms: _268  and  _269
REMARK  117  A    between atoms: _269  and  _270
REMARK  118  A    between atoms: _272  and  _274
REMARK  119  A    between atoms: _274  and  _275
REMARK  120  A    between atoms: _274  and  _277
REMARK  121  A    between atoms: _277  and  _278
REMARK  122  A    between atoms: _288  and  _290
REMARK  123  A    between atoms: _290  and  _291
REMARK  124  A    between atoms: _290  and  _293
REMARK  125  A    between atoms: _293  and  _294
REMARK  126  A    between atoms: _297  and  _299
REMARK  127  A    between atoms: _299  and  _300
REMARK  128  A    between atoms: _299  and  _302
REMARK  129  A    between atoms: _302  and  _303
REMARK  130  A    between atoms: _303  and  _304
REMARK  131  A    between atoms: _309  and  _311
REMARK  132  A    between atoms: _311  and  _312
REMARK  133  A    between atoms: _311  and  _314
REMARK  134  A    between atoms: _314  and  _315
REMARK  135  A    between atoms: _318  and  _320
REMARK  136  A    between atoms: _320  and  _321
REMARK  137  A    between atoms: _320  and  _323
REMARK  138  A    between atoms: _323  and  _324
REMARK  139  A    between atoms: _324  and  _325
REMARK  140  A    between atoms: _330  and  _332
REMARK  141  A    between atoms: _332  and  _333
REMARK  142  A    between atoms: _332  and  _335
REMARK  143  A    between atoms: _333  and  _334
REMARK  144  A    between atoms: _333  and  _342
REMARK  145  A    between atoms: _335  and  _336
REMARK  146  A    between atoms: _342  and  _344
REMARK  147  A    between atoms: _344  and  _345
REMARK  148  A    between atoms: _344  and  _347
REMARK  149  A    between atoms: _349  and  _351
REMARK  150  A    between atoms: _351  and  _352
REMARK  151  A    between atoms: _351  and  _354
REMARK  152  A    between atoms: _354  and  _355
REMARK  153  A    between atoms: _355  and  _356
REMARK  154  A    between atoms: _358  and  _360
REMARK  155  A    between atoms: _360  and  _361
REMARK  156  A    between atoms: _360  and  _363
REMARK  157  A    between atoms: _363  and  _364
REMARK  158  A    between atoms: _369  and  _371
REMARK  159  A    between atoms: _371  and  _372
REMARK  160  A    between atoms: _374  and  _376
REMARK  161  A    between atoms: _376  and  _377
REMARK  162  A    between atoms: _376  and  _379
REMARK  163  A    between atoms: _382  and  _384
REMARK  164  A    between atoms: _384  and  _385
REMARK  165  A    between atoms: _384  and  _387
REMARK  166  A    between atoms: _387  and  _388
REMARK  167  A    between atoms: _391  and  _393
REMARK  168  A    between atoms: _393  and  _394
REMARK  169  A    between atoms: _393  and  _396
REMARK  170  A    between atoms: _396  and  _397
REMARK  171  A    between atoms: _399  and  _401
REMARK  172  A    between atoms: _401  and  _402
REMARK  173  A    between atoms: _401  and  _404
REMARK  174  A    between atoms: _404  and  _405
REMARK  175  A    between atoms: _415  and  _417
REMARK  176  A    between atoms: _417  and  _418
REMARK  177  A    between atoms: _417  and  _420
REMARK  178  A    between atoms: _420  and  _421
REMARK  179  A    between atoms: _423  and  _425
REMARK  180  A    between atoms: _425  and  _426
REMARK  181  A    between atoms: _425  and  _428
REMARK  182  A    between atoms: _428  and  _429
REMARK  183  A    between atoms: _429  and  _430
REMARK  184  A    between atoms: _433  and  _435
REMARK  185  A    between atoms: _435  and  _436
REMARK  186  A    between atoms: _435  and  _438
REMARK  187  A    between atoms: _438  and  _439
REMARK  188  A    between atoms: _439  and  _440
REMARK  189  A    between atoms: _440  and  _441
REMARK                            x       y       z     vdW  Elec       q    Type
REMARK                         _______ _______ _______ _____ _____    ______ ____
ROOT
ATOM      1  C   CYS A   1      -5.410 -21.171 -25.156  0.00  0.00    +0.239 C 
ATOM      2  N   GLU A   2      -6.631 -20.822 -25.568  0.00  0.00    -0.298 N 
ATOM      3  H   GLU A   2      -7.163 -20.134 -24.997  0.00  0.00    +0.150 HD
ATOM      4  O   CYS A   1      -4.727 -22.030 -25.712  0.00  0.00    -0.274 OA
ENDROOT
BRANCH   1   5
ATOM      5  CA  CYS A   1      -4.883 -20.441 -23.919  0.00  0.00    +0.156 C 
BRANCH   5   6
ATOM      6  N   CYS A   1      -5.494 -19.111 -23.800  0.00  0.00    -0.237 NA
ATOM      7  H   CYS A   1      -6.156 -18.911 -23.023  0.00  0.00    +0.142 HD
ENDBRANCH   5   6
BRANCH   5   8
ATOM      8  CB  CYS A   1      -5.060 -21.286 -22.639  0.00  0.00    +0.095 C 
ATOM      9  SG  CYS A   1      -6.754 -21.817 -22.260  0.00  0.00    -0.080 S 
ENDBRANCH   5   8
ENDBRANCH   1   5
BRANCH   2  10
ATOM     10  CA  GLU A   2      -7.266 -21.354 -26.782  0.00  0.00    +0.137 C 
BRANCH  10  11
ATOM     11  C   GLU A   2      -8.167 -20.282 -27.382  0.00  0.00    +0.227 C 
ATOM     12  O   GLU A   2      -8.921 -19.630 -26.663  0.00  0.00    -0.286 OA
ENDBRANCH  10  11
BRANCH  10  13
ATOM     13  CB  GLU A   2      -8.095 -22.623 -26.489  0.00  0.00    +0.039 C 
BRANCH  13  14
ATOM     14  CG  GLU A   2      -7.304 -23.810 -25.943  0.00  0.00    +0.116 C 
BRANCH  14  15
ATOM     15  CD  GLU A   2      -8.180 -24.948 -25.435  0.00  0.00    +0.365 C 
ATOM     16  OE2 GLU A   2      -7.735 -25.643 -24.504  0.00  0.00    -0.246 OA
ATOM     17  OE1 GLU A   2      -9.301 -25.154 -25.957  0.00  0.00    -0.246 OA
ENDBRANCH  14  15
ENDBRANCH  13  14
ENDBRANCH  10  13
ENDBRANCH   2  10
TORSDOF 8
REMARK  Name = ../refined-set-2016/3t0b/3t0b_pocket.pdb
REMARK  189 active torsions:
REMARK  status: ('A' for Active; 'I' for Inactive)
REMARK    1  A    between atoms: _1  and  _3
REMARK    2  A    between atoms: _3  and  _4
REMARK    3  A    between atoms: _3  and  _6
REMARK    4  A    between atoms: _6  and  _7
REMARK    5  A    between atoms: _12  and  _13
REMARK    6  A    between atoms: _15  and  _17
REMARK    7  A    between atoms: _17  and  _18
REMARK    8  A    between atoms: _17  and  _20
REMARK    9  A    between atoms: _20  and  _21
REMARK   10  A    between atoms: _24  and  _26
REMARK   11  A    between atoms: _26  and  _27
REMARK   12  A    between atoms: _26  and  _29
REMARK   13  A    between atoms: _29  and  _30
REMARK   14  A    between atoms: _35  and  _37
REMARK   15  A    between atoms: _37  and  _38
REMARK   16  A    between atoms: _37  and  _40
REMARK   17  A    between atoms: _43  and  _45
REMARK   18  A    between atoms: _45  and  _46
REMARK   19  A    between atoms: _45  and  _48
REMARK   20  A    between atoms: _48  and  _49
REMARK   21  A    between atoms: _52  and  _54
REMARK   22  A    between atoms: _54  and  _55
REMARK   23  A    between atoms: _54  and  _57
REMARK   24  A    between atoms: _57  and  _58
REMARK   25  A    between atoms: _58  and  _59
REMARK   26  A    between atoms: _64  and  _66
REMARK   27  A    between atoms: _66  and  _67
REMARK   28  A    between atoms: _66  and  _69
REMARK   29  A    between atoms: _69  and  _70
REMARK   30  A    between atoms: _73  and  _75
REMARK   31  A    between atoms: _75  and  _76
REMARK   32  A    between atoms: _75  and  _78
REMARK   33  A    between atoms: _78  and  _79
REMARK   34  A    between atoms: _79  and  _80
REMARK   35  A    between atoms: _82  and  _84
REMARK   36  A    between atoms: _84  and  _85
REMARK   37  A    between atoms: _84  and  _87
REMARK   38  A    between atoms: _87  and  _88
REMARK   39  A    between atoms: _93  and  _95
REMARK   40  A    between atoms: _95  and  _96
REMARK   41  A    between atoms: _95  and  _98
REMARK   42  A    between atoms: _98  and  _99
REMARK   43  A    between atoms: _104  and  _106
REMARK   44  A    between atoms: _106  and  _107
REMARK   45  A    between atoms: _106  and  _109
REMARK   46  A    between atoms: _109  and  _110
REMARK   47  A    between atoms: _110  and  _111
REMARK   48  A    between atoms: _111  and  _112
REMARK   49  A    between atoms: _121  and  _123
REMARK   50  A    between atoms: _123  and  _124
REMARK   51  A    between atoms: _123  and  _126
REMARK   52  A    between atoms: _126  and  _127
REMARK   53  A    between atoms: _132  and  _134
REMARK   54  A    between atoms: _134  and  _135
REMARK   55  A    between atoms: _134  and  _137
REMARK   56  A    between atoms: _137  and  _138
REMARK   57  A    between atoms: _138  and  _139
REMARK   58  A    between atoms: _142  and  _144
REMARK   59  A    between atoms: _144  and  _145
REMARK   60  A    between atoms: _144  and  _147
REMARK   61  A    between atoms: _147  and  _148
REMARK   62  A    between atoms: _149  and  MG_450
REMARK   63  A    between atoms: _153  and  _155
REMARK   64  A    between atoms: _155  and  _156
REMARK   65  A    between atoms: _155  and  _158
REMARK   66  A    between atoms: _158  and  _159
REMARK   67  A    between atoms: _159  and  _160
REMARK   68  A    between atoms: _162  and  _164
REMARK   69  A    between atoms: _164  and  _165
REMARK   70  A    between atoms: _164  and  _167
REMARK   71  A    between atoms: _167  and  _168
REMARK   72  A    between atoms: _173  and  _175
REMARK   73  A    between atoms: _175  and  _176
REMARK   74  A    between atoms: _175  and  _178
REMARK   75  A    between atoms: _178  and  _179
REMARK   76  A    between atoms: _179  and  _180
REMARK   77  A    between atoms: _183  and  _185
REMARK   78  A    between atoms: _185  and  _186
REMARK   79  A    between atoms: _185  and  _188
REMARK   80  A    between atoms: _188  and  _189
REMARK   81  A    between atoms: _189  and  _190
REMARK   82  A    between atoms: _193  and  _195
REMARK   83  A    between atoms: _195  and  _196
REMARK   84  A    between atoms: _195  and  _198
REMARK   85  A    between atoms: _198  and  _199
REMARK   86  A    between atoms: _199  and  _200
REMARK   87  A    between atoms: _202  and  _204
REMARK   88  A    between atoms: _204  and  _205
REMARK   89  A    between atoms: _204  and  _207
REMARK   90  A    between atoms: _207  and  _208
REMARK   91  A    between atoms: _213  and  _214
REMARK   92  A    between atoms: _216  and  _218
REMARK   93  A    between atoms: _218  and  _219
REMARK   94  A    between atoms: _218  and  _221
REMARK   95  A    between atoms: _221  and  _222
REMARK   96  A    between atoms: _222  and  _223
REMARK   97  A    between atoms: _223  and  _224
REMARK   98  A    between atoms: _224  and  _225
REMARK   99  A    between atoms: _229  and  _231
REMARK  100  A    between atoms: _231  and  _232
REMARK  101  A    between atoms: _231  and  _234
REMARK  102  A    between atoms: _236  and  _238
REMARK  103  A    between atoms: _238  and  _239
REMARK  104  A    between atoms: _238  and  _241
REMARK  105  A    between atoms: _241  and  _242
REMARK  106  A    between atoms: _242  and  _243
REMARK  107  A    between atoms: _246  and  _248
REMARK  108  A    between atoms: _248  and  _249
REMARK  109  A    between atoms: _248  and  _251
REMARK  110  A    between atoms: _251  and  _252
REMARK  111  A    between atoms: _257  and  _259
REMARK  112  A    between atoms: _259  and  _260
REMARK  113  A    between atoms: _263  and  _265
REMARK  114  A    between atoms: _265  and  _266
REMARK  115  A    between atoms: _265  and  _268
REMARK  116  A    between atoms: _268  and  _269
REMARK  117  A    between atoms: _269  and  _270
REMARK  118  A    between atoms: _272  and  _274
REMARK  119  A    between atoms: _274  and  _275
REMARK  120  A    between atoms: _274  and  _277
REMARK  121  A    between atoms: _277  and  _278
REMARK  122  A    between atoms: _288  and  _290
REMARK  123  A    between atoms: _290  and  _291
REMARK  124  A    between atoms: _290  and  _293
REMARK  125  A    between atoms: _293  and  _294
REMARK  126  A    between atoms: _297  and  _299
REMARK  127  A    between atoms: _299  and  _300
REMARK  128  A    between atoms: _299  and  _302
REMARK  129  A    between atoms: _302  and  _303
REMARK  130  A    between atoms: _303  and  _304
REMARK  131  A    between atoms: _309  and  _311
REMARK  132  A    between atoms: _311  and  _312
REMARK  133  A    between atoms: _311  and  _314
REMARK  134  A    between atoms: _314  and  _315
REMARK  135  A    between atoms: _318  and  _320
REMARK  136  A    between atoms: _320  and  _321
REMARK  137  A    between atoms: _320  and  _323
REMARK  138  A    between atoms: _323  and  _324
REMARK  139  A    between atoms: _324  and  _325
REMARK  140  A    between atoms: _330  and  _332
REMARK  141  A    between atoms: _332  and  _333
REMARK  142  A    between atoms: _332  and  _335
REMARK  143  A    between atoms: _333  and  _334
REMARK  144  A    between atoms: _333  and  _342
REMARK  145  A    between atoms: _335  and  _336
REMARK  146  A    between atoms: _342  and  _344
REMARK  147  A    between atoms: _344  and  _345
REMARK  148  A    between atoms: _344  and  _347
REMARK  149  A    between atoms: _349  and  _351
REMARK  150  A    between atoms: _351  and  _352
REMARK  151  A    between atoms: _351  and  _354
REMARK  152  A    between atoms: _354  and  _355
REMARK  153  A    between atoms: _355  and  _356
REMARK  154  A    between atoms: _358  and  _360
REMARK  155  A    between atoms: _360  and  _361
REMARK  156  A    between atoms: _360  and  _363
REMARK  157  A    between atoms: _363  and  _364
REMARK  158  A    between atoms: _369  and  _371
REMARK  159  A    between atoms: _371  and  _372
REMARK  160  A    between atoms: _374  and  _376
REMARK  161  A    between atoms: _376  and  _377
REMARK  162  A    between atoms: _376  and  _379
REMARK  163  A    between atoms: _382  and  _384
REMARK  164  A    between atoms: _384  and  _385
REMARK  165  A    between atoms: _384  and  _387
REMARK  166  A    between atoms: _387  and  _388
REMARK  167  A    between atoms: _391  and  _393
REMARK  168  A    between atoms: _393  and  _394
REMARK  169  A    between atoms: _393  and  _396
REMARK  170  A    between atoms: _396  and  _397
REMARK  171  A    between atoms: _399  and  _401
REMARK  172  A    between atoms: _401  and  _402
REMARK  173  A    between atoms: _401  and  _404
REMARK  174  A    between atoms: _404  and  _405
REMARK  175  A    between atoms: _415  and  _417
REMARK  176  A    between atoms: _417  and  _418
REMARK  177  A    between atoms: _417  and  _420
REMARK  178  A    between atoms: _420  and  _421
REMARK  179  A    between atoms: _423  and  _425
REMARK  180  A    between atoms: _425  and  _426
REMARK  181  A    between atoms: _425  and  _428
REMARK  182  A    between atoms: _428  and  _429
REMARK  183  A    between atoms: _429  and  _430
REMARK  184  A    between atoms: _433  and  _435
REMARK  185  A    between atoms: _435  and  _436
REMARK  186  A    between atoms: _435  and  _438
REMARK  187  A    between atoms: _438  and  _439
REMARK  188  A    between atoms: _439  and  _440
REMARK  189  A    between atoms: _440  and  _441
REMARK                            x       y       z     vdW  Elec       q    Type
REMARK                         _______ _______ _______ _____ _____    ______ ____
ROOT
ATOM      1  C   HIS A   1     -11.267 -23.143 -34.707  0.00  0.00    +0.239 C 
ATOM      2  N   ALA A   2     -10.167 -23.730 -35.178  0.00  0.00    -0.297 N 
ATOM      3  H   ALA A   2      -9.440 -24.039 -34.501  0.00  0.00    +0.150 HD
ATOM      4  O   HIS A   1     -12.252 -22.901 -35.407  0.00  0.00    -0.274 OA
ENDROOT
BRANCH   2   5
ATOM      5  CA  ALA A   2      -9.935 -23.960 -36.607  0.00  0.00    +0.149 C 
ATOM      6  CB  ALA A   2      -8.423 -23.963 -36.904  0.00  0.00    +0.031 C 
BRANCH   5   7
ATOM      7  C   ALA A   2     -10.601 -25.215 -37.184  0.00  0.00    +0.241 C 
ATOM      8  N   MET A   3     -11.801 -25.527 -36.705  0.00  0.00    -0.298 N 
ATOM      9  H   MET A   3     -12.246 -24.898 -36.007  0.00  0.00    +0.150 HD
ATOM     10  O   ALA A   2     -10.043 -25.873 -38.076  0.00  0.00    -0.273 OA
BRANCH   8  11
ATOM     11  CA  MET A   3     -12.511 -26.730 -37.133  0.00  0.00    +0.138 C 
BRANCH  11  12
ATOM     12  C   MET A   3     -13.123 -26.569 -38.515  0.00  0.00    +0.227 C 
ATOM     13  O   MET A   3     -13.999 -25.722 -38.724  0.00  0.00    -0.286 OA
ENDBRANCH  11  12
BRANCH  11  14
ATOM     14  CB  MET A   3     -13.593 -27.074 -36.122  0.00  0.00    +0.039 C 
BRANCH  14  15
ATOM     15  CG  MET A   3     -14.394 -28.294 -36.459  0.00  0.00    +0.060 C 
BRANCH  15  16
ATOM     16  SD  MET A   3     -15.568 -28.581 -35.153  0.00  0.00    -0.139 S 
ATOM     17  CE  MET A   3     -16.262 -30.152 -35.674  0.00  0.00    +0.069 C 
ENDBRANCH  15  16
ENDBRANCH  14  15
ENDBRANCH  11  14
ENDBRANCH   8  11
ENDBRANCH   5   7
ENDBRANCH   2   5
BRANCH   1  18
ATOM     18  CA  HIS A   1     -11.251 -22.781 -33.216  0.00  0.00    +0.151 C 
BRANCH  18  19
ATOM     19  N   HIS A   1     -11.061 -21.335 -33.011  0.00  0.00    -0.238 NA
ATOM     20  H   HIS A   1     -11.785 -20.810 -32.481  0.00  0.00    +0.142 HD
ENDBRANCH  18  19
BRANCH  18  21
ATOM     21  CB  HIS A   1     -12.543 -23.222 -32.529  0.00  0.00    +0.074 C 
BRANCH  21  22
ATOM     22  CG  HIS A   1     -12.629 -24.690 -32.270  0.00  0.00    +0.082 A 
ATOM     23  CD2 HIS A   1     -12.121 -25.450 -31.273  0.00  0.00    +0.115 A 
ATOM     24  NE2 HIS A   1     -12.519 -26.745 -31.506  0.00  0.00    -0.221 NA
ATOM     25  CE1 HIS A   1     -13.267 -26.773 -32.594  0.00  0.00    +0.199 A 
ATOM     26  ND1 HIS A   1     -13.351 -25.546 -33.075  0.00  0.00    -0.227 NA
ENDBRANCH  21  22
ENDBRANCH  18  21
ENDBRANCH   1  18
TORSDOF 11
REMARK  Name = ../refined-set-2016/3t0b/3t0b_pocket.pdb
REMARK  189 active torsions:
REMARK  status: ('A' for Active; 'I' for Inactive)
REMARK    1  A    between atoms: _1  and  _3
REMARK    2  A    between atoms: _3  and  _4
REMARK    3  A    between atoms: _3  and  _6
REMARK    4  A    between atoms: _6  and  _7
REMARK    5  A    between atoms: _12  and  _13
REMARK    6  A    between atoms: _15  and  _17
REMARK    7  A    between atoms: _17  and  _18
REMARK    8  A    between atoms: _17  and  _20
REMARK    9  A    between atoms: _20  and  _21
REMARK   10  A    between atoms: _24  and  _26
REMARK   11  A    between atoms: _26  and  _27
REMARK   12  A    between atoms: _26  and  _29
REMARK   13  A    between atoms: _29  and  _30
REMARK   14  A    between atoms: _35  and  _37
REMARK   15  A    between atoms: _37  and  _38
REMARK   16  A    between atoms: _37  and  _40
REMARK   17  A    between atoms: _43  and  _45
REMARK   18  A    between atoms: _45  and  _46
REMARK   19  A    between atoms: _45  and  _48
REMARK   20  A    between atoms: _48  and  _49
REMARK   21  A    between atoms: _52  and  _54
REMARK   22  A    between atoms: _54  and  _55
REMARK   23  A    between atoms: _54  and  _57
REMARK   24  A    between atoms: _57  and  _58
REMARK   25  A    between atoms: _58  and  _59
REMARK   26  A    between atoms: _64  and  _66
REMARK   27  A    between atoms: _66  and  _67
REMARK   28  A    between atoms: _66  and  _69
REMARK   29  A    between atoms: _69  and  _70
REMARK   30  A    between atoms: _73  and  _75
REMARK   31  A    between atoms: _75  and  _76
REMARK   32  A    between atoms: _75  and  _78
REMARK   33  A    between atoms: _78  and  _79
REMARK   34  A    between atoms: _79  and  _80
REMARK   35  A    between atoms: _82  and  _84
REMARK   36  A    between atoms: _84  and  _85
REMARK   37  A    between atoms: _84  and  _87
REMARK   38  A    between atoms: _87  and  _88
REMARK   39  A    between atoms: _93  and  _95
REMARK   40  A    between atoms: _95  and  _96
REMARK   41  A    between atoms: _95  and  _98
REMARK   42  A    between atoms: _98  and  _99
REMARK   43  A    between atoms: _104  and  _106
REMARK   44  A    between atoms: _106  and  _107
REMARK   45  A    between atoms: _106  and  _109
REMARK   46  A    between atoms: _109  and  _110
REMARK   47  A    between atoms: _110  and  _111
REMARK   48  A    between atoms: _111  and  _112
REMARK   49  A    between atoms: _121  and  _123
REMARK   50  A    between atoms: _123  and  _124
REMARK   51  A    between atoms: _123  and  _126
REMARK   52  A    between atoms: _126  and  _127
REMARK   53  A    between atoms: _132  and  _134
REMARK   54  A    between atoms: _134  and  _135
REMARK   55  A    between atoms: _134  and  _137
REMARK   56  A    between atoms: _137  and  _138
REMARK   57  A    between atoms: _138  and  _139
REMARK   58  A    between atoms: _142  and  _144
REMARK   59  A    between atoms: _144  and  _145
REMARK   60  A    between atoms: _144  and  _147
REMARK   61  A    between atoms: _147  and  _148
REMARK   62  A    between atoms: _149  and  MG_450
REMARK   63  A    between atoms: _153  and  _155
REMARK   64  A    between atoms: _155  and  _156
REMARK   65  A    between atoms: _155  and  _158
REMARK   66  A    between atoms: _158  and  _159
REMARK   67  A    between atoms: _159  and  _160
REMARK   68  A    between atoms: _162  and  _164
REMARK   69  A    between atoms: _164  and  _165
REMARK   70  A    between atoms: _164  and  _167
REMARK   71  A    between atoms: _167  and  _168
REMARK   72  A    between atoms: _173  and  _175
REMARK   73  A    between atoms: _175  and  _176
REMARK   74  A    between atoms: _175  and  _178
REMARK   75  A    between atoms: _178  and  _179
REMARK   76  A    between atoms: _179  and  _180
REMARK   77  A    between atoms: _183  and  _185
REMARK   78  A    between atoms: _185  and  _186
REMARK   79  A    between atoms: _185  and  _188
REMARK   80  A    between atoms: _188  and  _189
REMARK   81  A    between atoms: _189  and  _190
REMARK   82  A    between atoms: _193  and  _195
REMARK   83  A    between atoms: _195  and  _196
REMARK   84  A    between atoms: _195  and  _198
REMARK   85  A    between atoms: _198  and  _199
REMARK   86  A    between atoms: _199  and  _200
REMARK   87  A    between atoms: _202  and  _204
REMARK   88  A    between atoms: _204  and  _205
REMARK   89  A    between atoms: _204  and  _207
REMARK   90  A    between atoms: _207  and  _208
REMARK   91  A    between atoms: _213  and  _214
REMARK   92  A    between atoms: _216  and  _218
REMARK   93  A    between atoms: _218  and  _219
REMARK   94  A    between atoms: _218  and  _221
REMARK   95  A    between atoms: _221  and  _222
REMARK   96  A    between atoms: _222  and  _223
REMARK   97  A    between atoms: _223  and  _224
REMARK   98  A    between atoms: _224  and  _225
REMARK   99  A    between atoms: _229  and  _231
REMARK  100  A    between atoms: _231  and  _232
REMARK  101  A    between atoms: _231  and  _234
REMARK  102  A    between atoms: _236  and  _238
REMARK  103  A    between atoms: _238  and  _239
REMARK  104  A    between atoms: _238  and  _241
REMARK  105  A    between atoms: _241  and  _242
REMARK  106  A    between atoms: _242  and  _243
REMARK  107  A    between atoms: _246  and  _248
REMARK  108  A    between atoms: _248  and  _249
REMARK  109  A    between atoms: _248  and  _251
REMARK  110  A    between atoms: _251  and  _252
REMARK  111  A    between atoms: _257  and  _259
REMARK  112  A    between atoms: _259  and  _260
REMARK  113  A    between atoms: _263  and  _265
REMARK  114  A    between atoms: _265  and  _266
REMARK  115  A    between atoms: _265  and  _268
REMARK  116  A    between atoms: _268  and  _269
REMARK  117  A    between atoms: _269  and  _270
REMARK  118  A    between atoms: _272  and  _274
REMARK  119  A    between atoms: _274  and  _275
REMARK  120  A    between atoms: _274  and  _277
REMARK  121  A    between atoms: _277  and  _278
REMARK  122  A    between atoms: _288  and  _290
REMARK  123  A    between atoms: _290  and  _291
REMARK  124  A    between atoms: _290  and  _293
REMARK  125  A    between atoms: _293  and  _294
REMARK  126  A    between atoms: _297  and  _299
REMARK  127  A    between atoms: _299  and  _300
REMARK  128  A    between atoms: _299  and  _302
REMARK  129  A    between atoms: _302  and  _303
REMARK  130  A    between atoms: _303  and  _304
REMARK  131  A    between atoms: _309  and  _311
REMARK  132  A    between atoms: _311  and  _312
REMARK  133  A    between atoms: _311  and  _314
REMARK  134  A    between atoms: _314  and  _315
REMARK  135  A    between atoms: _318  and  _320
REMARK  136  A    between atoms: _320  and  _321
REMARK  137  A    between atoms: _320  and  _323
REMARK  138  A    between atoms: _323  and  _324
REMARK  139  A    between atoms: _324  and  _325
REMARK  140  A    between atoms: _330  and  _332
REMARK  141  A    between atoms: _332  and  _333
REMARK  142  A    between atoms: _332  and  _335
REMARK  143  A    between atoms: _333  and  _334
REMARK  144  A    between atoms: _333  and  _342
REMARK  145  A    between atoms: _335  and  _336
REMARK  146  A    between atoms: _342  and  _344
REMARK  147  A    between atoms: _344  and  _345
REMARK  148  A    between atoms: _344  and  _347
REMARK  149  A    between atoms: _349  and  _351
REMARK  150  A    between atoms: _351  and  _352
REMARK  151  A    between atoms: _351  and  _354
REMARK  152  A    between atoms: _354  and  _355
REMARK  153  A    between atoms: _355  and  _356
REMARK  154  A    between atoms: _358  and  _360
REMARK  155  A    between atoms: _360  and  _361
REMARK  156  A    between atoms: _360  and  _363
REMARK  157  A    between atoms: _363  and  _364
REMARK  158  A    between atoms: _369  and  _371
REMARK  159  A    between atoms: _371  and  _372
REMARK  160  A    between atoms: _374  and  _376
REMARK  161  A    between atoms: _376  and  _377
REMARK  162  A    between atoms: _376  and  _379
REMARK  163  A    between atoms: _382  and  _384
REMARK  164  A    between atoms: _384  and  _385
REMARK  165  A    between atoms: _384  and  _387
REMARK  166  A    between atoms: _387  and  _388
REMARK  167  A    between atoms: _391  and  _393
REMARK  168  A    between atoms: _393  and  _394
REMARK  169  A    between atoms: _393  and  _396
REMARK  170  A    between atoms: _396  and  _397
REMARK  171  A    between atoms: _399  and  _401
REMARK  172  A    between atoms: _401  and  _402
REMARK  173  A    between atoms: _401  and  _404
REMARK  174  A    between atoms: _404  and  _405
REMARK  175  A    between atoms: _415  and  _417
REMARK  176  A    between atoms: _417  and  _418
REMARK  177  A    between atoms: _417  and  _420
REMARK  178  A    between atoms: _420  and  _421
REMARK  179  A    between atoms: _423  and  _425
REMARK  180  A    between atoms: _425  and  _426
REMARK  181  A    between atoms: _425  and  _428
REMARK  182  A    between atoms: _428  and  _429
REMARK  183  A    between atoms: _429  and  _430
REMARK  184  A    between atoms: _433  and  _435
REMARK  185  A    between atoms: _435  and  _436
REMARK  186  A    between atoms: _435  and  _438
REMARK  187  A    between atoms: _438  and  _439
REMARK  188  A    between atoms: _439  and  _440
REMARK  189  A    between atoms: _440  and  _441
REMARK                            x       y       z     vdW  Elec       q    Type
REMARK                         _______ _______ _______ _____ _____    ______ ____
ROOT
ATOM      1  CA  TRP A   1      -6.939 -24.294 -31.282  0.00  0.00    +0.149 C 
ENDROOT
BRANCH   1   2
ATOM      2  C   TRP A   1      -7.400 -24.820 -32.638  0.00  0.00    +0.239 C 
ATOM      3  O   TRP A   1      -8.499 -24.487 -33.074  0.00  0.00    -0.274 OA
ATOM      4  N   ASP A   2      -6.598 -25.658 -33.296  0.00  0.00    -0.298 N 
ATOM      5  H   ASP A   2      -6.944 -26.047 -34.197  0.00  0.00    +0.150 HD
BRANCH   4   6
ATOM      6  CA  ASP A   2      -5.263 -26.074 -32.845  0.00  0.00    +0.148 C 
BRANCH   6   7
ATOM      7  C   ASP A   2      -4.363 -26.372 -34.061  0.00  0.00    +0.227 C 
ATOM      8  O   ASP A   2      -4.665 -25.926 -35.170  0.00  0.00    -0.286 OA
ENDBRANCH   6   7
BRANCH   6   9
ATOM      9  CB  ASP A   2      -5.341 -27.256 -31.855  0.00  0.00    +0.142 C 
BRANCH   9  10
ATOM     10  CG  ASP A   2      -5.862 -28.546 -32.486  0.00  0.00    +0.367 C 
ATOM     11  OD2 ASP A   2      -5.739 -29.597 -31.825  0.00  0.00    -0.246 OA
ATOM     12  OD1 ASP A   2      -6.392 -28.529 -33.619  0.00  0.00    -0.246 OA
ENDBRANCH   9  10
ENDBRANCH   6   9
ENDBRANCH   4   6
ENDBRANCH   1   2
BRANCH   1  13
ATOM     13  N   TRP A   1      -6.498 -22.908 -31.357  0.00  0.00    -0.238 NA
ATOM     14  H   TRP A   1      -7.209 -22.152 -31.419  0.00  0.00    +0.142 HD
ENDBRANCH   1  13
BRANCH   1  15
ATOM     15  CB  TRP A   1      -8.075 -24.516 -30.279  0.00  0.00    +0.054 C 
BRANCH  15  16
ATOM     16  CG  TRP A   1      -8.264 -25.987 -30.099  0.00  0.00    -0.002 A 
ATOM     17  CD2 TRP A   1      -7.556 -26.825 -29.185  0.00  0.00    +0.013 A 
ATOM     18  CE3 TRP A   1      -6.600 -26.583 -28.192  0.00  0.00    +0.001 A 
ATOM     19  CZ3 TRP A   1      -6.111 -27.665 -27.455  0.00  0.00    +0.000 A 
ATOM     20  CH2 TRP A   1      -6.576 -28.967 -27.688  0.00  0.00    +0.001 A 
ATOM     21  CZ2 TRP A   1      -7.516 -29.231 -28.652  0.00  0.00    +0.017 A 
ATOM     22  CE2 TRP A   1      -8.000 -28.151 -29.397  0.00  0.00    +0.056 A 
ATOM     23  NE1 TRP A   1      -8.925 -28.120 -30.408  0.00  0.00    -0.352 N 
ATOM     24  HE1 TRP A   1      -9.433 -28.943 -30.791  0.00  0.00    +0.166 HD
ATOM     25  CD1 TRP A   1      -9.071 -26.816 -30.834  0.00  0.00    +0.068 A 
ENDBRANCH  15  16
ENDBRANCH   1  15
TORSDOF 8
REMARK  Name = ../refined-set-2016/3t0b/3t0b_pocket.pdb
REMARK  189 active torsions:
REMARK  status: ('A' for Active; 'I' for Inactive)
REMARK    1  A    between atoms: _1  and  _3
REMARK    2  A    between atoms: _3  and  _4
REMARK    3  A    between atoms: _3  and  _6
REMARK    4  A    between atoms: _6  and  _7
REMARK    5  A    between atoms: _12  and  _13
REMARK    6  A    between atoms: _15  and  _17
REMARK    7  A    between atoms: _17  and  _18
REMARK    8  A    between atoms: _17  and  _20
REMARK    9  A    between atoms: _20  and  _21
REMARK   10  A    between atoms: _24  and  _26
REMARK   11  A    between atoms: _26  and  _27
REMARK   12  A    between atoms: _26  and  _29
REMARK   13  A    between atoms: _29  and  _30
REMARK   14  A    between atoms: _35  and  _37
REMARK   15  A    between atoms: _37  and  _38
REMARK   16  A    between atoms: _37  and  _40
REMARK   17  A    between atoms: _43  and  _45
REMARK   18  A    between atoms: _45  and  _46
REMARK   19  A    between atoms: _45  and  _48
REMARK   20  A    between atoms: _48  and  _49
REMARK   21  A    between atoms: _52  and  _54
REMARK   22  A    between atoms: _54  and  _55
REMARK   23  A    between atoms: _54  and  _57
REMARK   24  A    between atoms: _57  and  _58
REMARK   25  A    between atoms: _58  and  _59
REMARK   26  A    between atoms: _64  and  _66
REMARK   27  A    between atoms: _66  and  _67
REMARK   28  A    between atoms: _66  and  _69
REMARK   29  A    between atoms: _69  and  _70
REMARK   30  A    between atoms: _73  and  _75
REMARK   31  A    between atoms: _75  and  _76
REMARK   32  A    between atoms: _75  and  _78
REMARK   33  A    between atoms: _78  and  _79
REMARK   34  A    between atoms: _79  and  _80
REMARK   35  A    between atoms: _82  and  _84
REMARK   36  A    between atoms: _84  and  _85
REMARK   37  A    between atoms: _84  and  _87
REMARK   38  A    between atoms: _87  and  _88
REMARK   39  A    between atoms: _93  and  _95
REMARK   40  A    between atoms: _95  and  _96
REMARK   41  A    between atoms: _95  and  _98
REMARK   42  A    between atoms: _98  and  _99
REMARK   43  A    between atoms: _104  and  _106
REMARK   44  A    between atoms: _106  and  _107
REMARK   45  A    between atoms: _106  and  _109
REMARK   46  A    between atoms: _109  and  _110
REMARK   47  A    between atoms: _110  and  _111
REMARK   48  A    between atoms: _111  and  _112
REMARK   49  A    between atoms: _121  and  _123
REMARK   50  A    between atoms: _123  and  _124
REMARK   51  A    between atoms: _123  and  _126
REMARK   52  A    between atoms: _126  and  _127
REMARK   53  A    between atoms: _132  and  _134
REMARK   54  A    between atoms: _134  and  _135
REMARK   55  A    between atoms: _134  and  _137
REMARK   56  A    between atoms: _137  and  _138
REMARK   57  A    between atoms: _138  and  _139
REMARK   58  A    between atoms: _142  and  _144
REMARK   59  A    between atoms: _144  and  _145
REMARK   60  A    between atoms: _144  and  _147
REMARK   61  A    between atoms: _147  and  _148
REMARK   62  A    between atoms: _149  and  MG_450
REMARK   63  A    between atoms: _153  and  _155
REMARK   64  A    between atoms: _155  and  _156
REMARK   65  A    between atoms: _155  and  _158
REMARK   66  A    between atoms: _158  and  _159
REMARK   67  A    between atoms: _159  and  _160
REMARK   68  A    between atoms: _162  and  _164
REMARK   69  A    between atoms: _164  and  _165
REMARK   70  A    between atoms: _164  and  _167
REMARK   71  A    between atoms: _167  and  _168
REMARK   72  A    between atoms: _173  and  _175
REMARK   73  A    between atoms: _175  and  _176
REMARK   74  A    between atoms: _175  and  _178
REMARK   75  A    between atoms: _178  and  _179
REMARK   76  A    between atoms: _179  and  _180
REMARK   77  A    between atoms: _183  and  _185
REMARK   78  A    between atoms: _185  and  _186
REMARK   79  A    between atoms: _185  and  _188
REMARK   80  A    between atoms: _188  and  _189
REMARK   81  A    between atoms: _189  and  _190
REMARK   82  A    between atoms: _193  and  _195
REMARK   83  A    between atoms: _195  and  _196
REMARK   84  A    between atoms: _195  and  _198
REMARK   85  A    between atoms: _198  and  _199
REMARK   86  A    between atoms: _199  and  _200
REMARK   87  A    between atoms: _202  and  _204
REMARK   88  A    between atoms: _204  and  _205
REMARK   89  A    between atoms: _204  and  _207
REMARK   90  A    between atoms: _207  and  _208
REMARK   91  A    between atoms: _213  and  _214
REMARK   92  A    between atoms: _216  and  _218
REMARK   93  A    between atoms: _218  and  _219
REMARK   94  A    between atoms: _218  and  _221
REMARK   95  A    between atoms: _221  and  _222
REMARK   96  A    between atoms: _222  and  _223
REMARK   97  A    between atoms: _223  and  _224
REMARK   98  A    between atoms: _224  and  _225
REMARK   99  A    between atoms: _229  and  _231
REMARK  100  A    between atoms: _231  and  _232
REMARK  101  A    between atoms: _231  and  _234
REMARK  102  A    between atoms: _236  and  _238
REMARK  103  A    between atoms: _238  and  _239
REMARK  104  A    between atoms: _238  and  _241
REMARK  105  A    between atoms: _241  and  _242
REMARK  106  A    between atoms: _242  and  _243
REMARK  107  A    between atoms: _246  and  _248
REMARK  108  A    between atoms: _248  and  _249
REMARK  109  A    between atoms: _248  and  _251
REMARK  110  A    between atoms: _251  and  _252
REMARK  111  A    between atoms: _257  and  _259
REMARK  112  A    between atoms: _259  and  _260
REMARK  113  A    between atoms: _263  and  _265
REMARK  114  A    between atoms: _265  and  _266
REMARK  115  A    between atoms: _265  and  _268
REMARK  116  A    between atoms: _268  and  _269
REMARK  117  A    between atoms: _269  and  _270
REMARK  118  A    between atoms: _272  and  _274
REMARK  119  A    between atoms: _274  and  _275
REMARK  120  A    between atoms: _274  and  _277
REMARK  121  A    between atoms: _277  and  _278
REMARK  122  A    between atoms: _288  and  _290
REMARK  123  A    between atoms: _290  and  _291
REMARK  124  A    between atoms: _290  and  _293
REMARK  125  A    between atoms: _293  and  _294
REMARK  126  A    between atoms: _297  and  _299
REMARK  127  A    between atoms: _299  and  _300
REMARK  128  A    between atoms: _299  and  _302
REMARK  129  A    between atoms: _302  and  _303
REMARK  130  A    between atoms: _303  and  _304
REMARK  131  A    between atoms: _309  and  _311
REMARK  132  A    between atoms: _311  and  _312
REMARK  133  A    between atoms: _311  and  _314
REMARK  134  A    between atoms: _314  and  _315
REMARK  135  A    between atoms: _318  and  _320
REMARK  136  A    between atoms: _320  and  _321
REMARK  137  A    between atoms: _320  and  _323
REMARK  138  A    between atoms: _323  and  _324
REMARK  139  A    between atoms: _324  and  _325
REMARK  140  A    between atoms: _330  and  _332
REMARK  141  A    between atoms: _332  and  _333
REMARK  142  A    between atoms: _332  and  _335
REMARK  143  A    between atoms: _333  and  _334
REMARK  144  A    between atoms: _333  and  _342
REMARK  145  A    between atoms: _335  and  _336
REMARK  146  A    between atoms: _342  and  _344
REMARK  147  A    between atoms: _344  and  _345
REMARK  148  A    between atoms: _344  and  _347
REMARK  149  A    between atoms: _349  and  _351
REMARK  150  A    between atoms: _351  and  _352
REMARK  151  A    between atoms: _351  and  _354
REMARK  152  A    between atoms: _354  and  _355
REMARK  153  A    between atoms: _355  and  _356
REMARK  154  A    between atoms: _358  and  _360
REMARK  155  A    between atoms: _360  and  _361
REMARK  156  A    between atoms: _360  and  _363
REMARK  157  A    between atoms: _363  and  _364
REMARK  158  A    between atoms: _369  and  _371
REMARK  159  A    between atoms: _371  and  _372
REMARK  160  A    between atoms: _374  and  _376
REMARK  161  A    between atoms: _376  and  _377
REMARK  162  A    between atoms: _376  and  _379
REMARK  163  A    between atoms: _382  and  _384
REMARK  164  A    between atoms: _384  and  _385
REMARK  165  A    between atoms: _384  and  _387
REMARK  166  A    between atoms: _387  and  _388
REMARK  167  A    between atoms: _391  and  _393
REMARK  168  A    between atoms: _393  and  _394
REMARK  169  A    between atoms: _393  and  _396
REMARK  170  A    between atoms: _396  and  _397
REMARK  171  A    between atoms: _399  and  _401
REMARK  172  A    between atoms: _401  and  _402
REMARK  173  A    between atoms: _401  and  _404
REMARK  174  A    between atoms: _404  and  _405
REMARK  175  A    between atoms: _415  and  _417
REMARK  176  A    between atoms: _417  and  _418
REMARK  177  A    between atoms: _417  and  _420
REMARK  178  A    between atoms: _420  and  _421
REMARK  179  A    between atoms: _423  and  _425
REMARK  180  A    between atoms: _425  and  _426
REMARK  181  A    between atoms: _425  and  _428
REMARK  182  A    between atoms: _428  and  _429
REMARK  183  A    between atoms: _429  and  _430
REMARK  184  A    between atoms: _433  and  _435
REMARK  185  A    between atoms: _435  and  _436
REMARK  186  A    between atoms: _435  and  _438
REMARK  187  A    between atoms: _438  and  _439
REMARK  188  A    between atoms: _439  and  _440
REMARK  189  A    between atoms: _440  and  _441
REMARK                            x       y       z     vdW  Elec       q    Type
REMARK                         _______ _______ _______ _____ _____    ______ ____
ROOT
ATOM      1  CB  GLN A   1      -7.001 -35.725 -33.711  0.00  0.00    +0.035 C 
ENDROOT
BRANCH   1   2
ATOM      2  CA  GLN A   1      -6.600 -35.644 -35.188  0.00  0.00    +0.134 C 
BRANCH   2   3
ATOM      3  N   GLN A   1      -6.779 -34.294 -35.742  0.00  0.00    -0.239 NA
ATOM      4  H   GLN A   1      -7.511 -33.667 -35.350  0.00  0.00    +0.142 HD
ENDBRANCH   2   3
BRANCH   2   5
ATOM      5  C   GLN A   1      -7.390 -36.672 -35.999  0.00  0.00    +0.224 C 
ATOM      6  O   GLN A   1      -8.255 -37.368 -35.456  0.00  0.00    -0.287 OA
ENDBRANCH   2   5
ENDBRANCH   1   2
BRANCH   1   7
ATOM      7  CG  GLN A   1      -5.998 -35.155 -32.729  0.00  0.00    +0.087 C 
BRANCH   7   8
ATOM      8  CD  GLN A   1      -6.461 -35.320 -31.298  0.00  0.00    +0.219 C 
ATOM      9  NE2 GLN A   1      -6.670 -34.201 -30.598  0.00  0.00    -0.329 N 
ATOM     10 HE21 GLN A   1      -6.998 -34.258 -29.613  0.00  0.00    +0.145 HD
ATOM     11 HE22 GLN A   1      -6.505 -33.274 -31.039  0.00  0.00    +0.145 HD
ATOM     12  OE1 GLN A   1      -6.640 -36.441 -30.827  0.00  0.00    -0.275 OA
ENDBRANCH   7   8
ENDBRANCH   1   7
TORSDOF 5
REMARK  Name = ../refined-set-2016/3t0b/3t0b_pocket.pdb
REMARK  189 active torsions:
REMARK  status: ('A' for Active; 'I' for Inactive)
REMARK    1  A    between atoms: _1  and  _3
REMARK    2  A    between atoms: _3  and  _4
REMARK    3  A    between atoms: _3  and  _6
REMARK    4  A    between atoms: _6  and  _7
REMARK    5  A    between atoms: _12  and  _13
REMARK    6  A    between atoms: _15  and  _17
REMARK    7  A    between atoms: _17  and  _18
REMARK    8  A    between atoms: _17  and  _20
REMARK    9  A    between atoms: _20  and  _21
REMARK   10  A    between atoms: _24  and  _26
REMARK   11  A    between atoms: _26  and  _27
REMARK   12  A    between atoms: _26  and  _29
REMARK   13  A    between atoms: _29  and  _30
REMARK   14  A    between atoms: _35  and  _37
REMARK   15  A    between atoms: _37  and  _38
REMARK   16  A    between atoms: _37  and  _40
REMARK   17  A    between atoms: _43  and  _45
REMARK   18  A    between atoms: _45  and  _46
REMARK   19  A    between atoms: _45  and  _48
REMARK   20  A    between atoms: _48  and  _49
REMARK   21  A    between atoms: _52  and  _54
REMARK   22  A    between atoms: _54  and  _55
REMARK   23  A    between atoms: _54  and  _57
REMARK   24  A    between atoms: _57  and  _58
REMARK   25  A    between atoms: _58  and  _59
REMARK   26  A    between atoms: _64  and  _66
REMARK   27  A    between atoms: _66  and  _67
REMARK   28  A    between atoms: _66  and  _69
REMARK   29  A    between atoms: _69  and  _70
REMARK   30  A    between atoms: _73  and  _75
REMARK   31  A    between atoms: _75  and  _76
REMARK   32  A    between atoms: _75  and  _78
REMARK   33  A    between atoms: _78  and  _79
REMARK   34  A    between atoms: _79  and  _80
REMARK   35  A    between atoms: _82  and  _84
REMARK   36  A    between atoms: _84  and  _85
REMARK   37  A    between atoms: _84  and  _87
REMARK   38  A    between atoms: _87  and  _88
REMARK   39  A    between atoms: _93  and  _95
REMARK   40  A    between atoms: _95  and  _96
REMARK   41  A    between atoms: _95  and  _98
REMARK   42  A    between atoms: _98  and  _99
REMARK   43  A    between atoms: _104  and  _106
REMARK   44  A    between atoms: _106  and  _107
REMARK   45  A    between atoms: _106  and  _109
REMARK   46  A    between atoms: _109  and  _110
REMARK   47  A    between atoms: _110  and  _111
REMARK   48  A    between atoms: _111  and  _112
REMARK   49  A    between atoms: _121  and  _123
REMARK   50  A    between atoms: _123  and  _124
REMARK   51  A    between atoms: _123  and  _126
REMARK   52  A    between atoms: _126  and  _127
REMARK   53  A    between atoms: _132  and  _134
REMARK   54  A    between atoms: _134  and  _135
REMARK   55  A    between atoms: _134  and  _137
REMARK   56  A    between atoms: _137  and  _138
REMARK   57  A    between atoms: _138  and  _139
REMARK   58  A    between atoms: _142  and  _144
REMARK   59  A    between atoms: _144  and  _145
REMARK   60  A    between atoms: _144  and  _147
REMARK   61  A    between atoms: _147  and  _148
REMARK   62  A    between atoms: _149  and  MG_450
REMARK   63  A    between atoms: _153  and  _155
REMARK   64  A    between atoms: _155  and  _156
REMARK   65  A    between atoms: _155  and  _158
REMARK   66  A    between atoms: _158  and  _159
REMARK   67  A    between atoms: _159  and  _160
REMARK   68  A    between atoms: _162  and  _164
REMARK   69  A    between atoms: _164  and  _165
REMARK   70  A    between atoms: _164  and  _167
REMARK   71  A    between atoms: _167  and  _168
REMARK   72  A    between atoms: _173  and  _175
REMARK   73  A    between atoms: _175  and  _176
REMARK   74  A    between atoms: _175  and  _178
REMARK   75  A    between atoms: _178  and  _179
REMARK   76  A    between atoms: _179  and  _180
REMARK   77  A    between atoms: _183  and  _185
REMARK   78  A    between atoms: _185  and  _186
REMARK   79  A    between atoms: _185  and  _188
REMARK   80  A    between atoms: _188  and  _189
REMARK   81  A    between atoms: _189  and  _190
REMARK   82  A    between atoms: _193  and  _195
REMARK   83  A    between atoms: _195  and  _196
REMARK   84  A    between atoms: _195  and  _198
REMARK   85  A    between atoms: _198  and  _199
REMARK   86  A    between atoms: _199  and  _200
REMARK   87  A    between atoms: _202  and  _204
REMARK   88  A    between atoms: _204  and  _205
REMARK   89  A    between atoms: _204  and  _207
REMARK   90  A    between atoms: _207  and  _208
REMARK   91  A    between atoms: _213  and  _214
REMARK   92  A    between atoms: _216  and  _218
REMARK   93  A    between atoms: _218  and  _219
REMARK   94  A    between atoms: _218  and  _221
REMARK   95  A    between atoms: _221  and  _222
REMARK   96  A    between atoms: _222  and  _223
REMARK   97  A    between atoms: _223  and  _224
REMARK   98  A    between atoms: _224  and  _225
REMARK   99  A    between atoms: _229  and  _231
REMARK  100  A    between atoms: _231  and  _232
REMARK  101  A    between atoms: _231  and  _234
REMARK  102  A    between atoms: _236  and  _238
REMARK  103  A    between atoms: _238  and  _239
REMARK  104  A    between atoms: _238  and  _241
REMARK  105  A    between atoms: _241  and  _242
REMARK  106  A    between atoms: _242  and  _243
REMARK  107  A    between atoms: _246  and  _248
REMARK  108  A    between atoms: _248  and  _249
REMARK  109  A    between atoms: _248  and  _251
REMARK  110  A    between atoms: _251  and  _252
REMARK  111  A    between atoms: _257  and  _259
REMARK  112  A    between atoms: _259  and  _260
REMARK  113  A    between atoms: _263  and  _265
REMARK  114  A    between atoms: _265  and  _266
REMARK  115  A    between atoms: _265  and  _268
REMARK  116  A    between atoms: _268  and  _269
REMARK  117  A    between atoms: _269  and  _270
REMARK  118  A    between atoms: _272  and  _274
REMARK  119  A    between atoms: _274  and  _275
REMARK  120  A    between atoms: _274  and  _277
REMARK  121  A    between atoms: _277  and  _278
REMARK  122  A    between atoms: _288  and  _290
REMARK  123  A    between atoms: _290  and  _291
REMARK  124  A    between atoms: _290  and  _293
REMARK  125  A    between atoms: _293  and  _294
REMARK  126  A    between atoms: _297  and  _299
REMARK  127  A    between atoms: _299  and  _300
REMARK  128  A    between atoms: _299  and  _302
REMARK  129  A    between atoms: _302  and  _303
REMARK  130  A    between atoms: _303  and  _304
REMARK  131  A    between atoms: _309  and  _311
REMARK  132  A    between atoms: _311  and  _312
REMARK  133  A    between atoms: _311  and  _314
REMARK  134  A    between atoms: _314  and  _315
REMARK  135  A    between atoms: _318  and  _320
REMARK  136  A    between atoms: _320  and  _321
REMARK  137  A    between atoms: _320  and  _323
REMARK  138  A    between atoms: _323  and  _324
REMARK  139  A    between atoms: _324  and  _325
REMARK  140  A    between atoms: _330  and  _332
REMARK  141  A    between atoms: _332  and  _333
REMARK  142  A    between atoms: _332  and  _335
REMARK  143  A    between atoms: _333  and  _334
REMARK  144  A    between atoms: _333  and  _342
REMARK  145  A    between atoms: _335  and  _336
REMARK  146  A    between atoms: _342  and  _344
REMARK  147  A    between atoms: _344  and  _345
REMARK  148  A    between atoms: _344  and  _347
REMARK  149  A    between atoms: _349  and  _351
REMARK  150  A    between atoms: _351  and  _352
REMARK  151  A    between atoms: _351  and  _354
REMARK  152  A    between atoms: _354  and  _355
REMARK  153  A    between atoms: _355  and  _356
REMARK  154  A    between atoms: _358  and  _360
REMARK  155  A    between atoms: _360  and  _361
REMARK  156  A    between atoms: _360  and  _363
REMARK  157  A    between atoms: _363  and  _364
REMARK  158  A    between atoms: _369  and  _371
REMARK  159  A    between atoms: _371  and  _372
REMARK  160  A    between atoms: _374  and  _376
REMARK  161  A    between atoms: _376  and  _377
REMARK  162  A    between atoms: _376  and  _379
REMARK  163  A    between atoms: _382  and  _384
REMARK  164  A    between atoms: _384  and  _385
REMARK  165  A    between atoms: _384  and  _387
REMARK  166  A    between atoms: _387  and  _388
REMARK  167  A    between atoms: _391  and  _393
REMARK  168  A    between atoms: _393  and  _394
REMARK  169  A    between atoms: _393  and  _396
REMARK  170  A    between atoms: _396  and  _397
REMARK  171  A    between atoms: _399  and  _401
REMARK  172  A    between atoms: _401  and  _402
REMARK  173  A    between atoms: _401  and  _404
REMARK  174  A    between atoms: _404  and  _405
REMARK  175  A    between atoms: _415  and  _417
REMARK  176  A    between atoms: _417  and  _418
REMARK  177  A    between atoms: _417  and  _420
REMARK  178  A    between atoms: _420  and  _421
REMARK  179  A    between atoms: _423  and  _425
REMARK  180  A    between atoms: _425  and  _426
REMARK  181  A    between atoms: _425  and  _428
REMARK  182  A    between atoms: _428  and  _429
REMARK  183  A    between atoms: _429  and  _430
REMARK  184  A    between atoms: _433  and  _435
REMARK  185  A    between atoms: _435  and  _436
REMARK  186  A    between atoms: _435  and  _438
REMARK  187  A    between atoms: _438  and  _439
REMARK  188  A    between atoms: _439  and  _440
REMARK  189  A    between atoms: _440  and  _441
REMARK                            x       y       z     vdW  Elec       q    Type
REMARK                         _______ _______ _______ _____ _____    ______ ____
ROOT
ATOM      1  CA  ASP A   1     -17.964 -36.864 -30.937  0.00  0.00    +0.144 C 
ENDROOT
BRANCH   1   2
ATOM      2  N   ASP A   1     -17.697 -38.262 -30.629  0.00  0.00    -0.239 NA
ATOM      3  H   ASP A   1     -16.728 -38.628 -30.717  0.00  0.00    +0.142 HD
ENDBRANCH   1   2
BRANCH   1   4
ATOM      4  C   ASP A   1     -17.506 -36.524 -32.350  0.00  0.00    +0.225 C 
ATOM      5  O   ASP A   1     -17.017 -35.418 -32.638  0.00  0.00    -0.287 OA
ENDBRANCH   1   4
BRANCH   1   6
ATOM      6  CB  ASP A   1     -17.366 -35.945 -29.870  0.00  0.00    +0.139 C 
BRANCH   6   7
ATOM      7  CG  ASP A   1     -18.178 -35.950 -28.584  0.00  0.00    +0.367 C 
ATOM      8  OD2 ASP A   1     -17.656 -36.385 -27.534  0.00  0.00    -0.246 OA
ATOM      9  OD1 ASP A   1     -19.352 -35.533 -28.625  0.00  0.00    -0.246 OA
ENDBRANCH   6   7
ENDBRANCH   1   6
TORSDOF 4
REMARK  Name = ../refined-set-2016/3t0b/3t0b_pocket.pdb
REMARK  189 active torsions:
REMARK  status: ('A' for Active; 'I' for Inactive)
REMARK    1  A    between atoms: _1  and  _3
REMARK    2  A    between atoms: _3  and  _4
REMARK    3  A    between atoms: _3  and  _6
REMARK    4  A    between atoms: _6  and  _7
REMARK    5  A    between atoms: _12  and  _13
REMARK    6  A    between atoms: _15  and  _17
REMARK    7  A    between atoms: _17  and  _18
REMARK    8  A    between atoms: _17  and  _20
REMARK    9  A    between atoms: _20  and  _21
REMARK   10  A    between atoms: _24  and  _26
REMARK   11  A    between atoms: _26  and  _27
REMARK   12  A    between atoms: _26  and  _29
REMARK   13  A    between atoms: _29  and  _30
REMARK   14  A    between atoms: _35  and  _37
REMARK   15  A    between atoms: _37  and  _38
REMARK   16  A    between atoms: _37  and  _40
REMARK   17  A    between atoms: _43  and  _45
REMARK   18  A    between atoms: _45  and  _46
REMARK   19  A    between atoms: _45  and  _48
REMARK   20  A    between atoms: _48  and  _49
REMARK   21  A    between atoms: _52  and  _54
REMARK   22  A    between atoms: _54  and  _55
REMARK   23  A    between atoms: _54  and  _57
REMARK   24  A    between atoms: _57  and  _58
REMARK   25  A    between atoms: _58  and  _59
REMARK   26  A    between atoms: _64  and  _66
REMARK   27  A    between atoms: _66  and  _67
REMARK   28  A    between atoms: _66  and  _69
REMARK   29  A    between atoms: _69  and  _70
REMARK   30  A    between atoms: _73  and  _75
REMARK   31  A    between atoms: _75  and  _76
REMARK   32  A    between atoms: _75  and  _78
REMARK   33  A    between atoms: _78  and  _79
REMARK   34  A    between atoms: _79  and  _80
REMARK   35  A    between atoms: _82  and  _84
REMARK   36  A    between atoms: _84  and  _85
REMARK   37  A    between atoms: _84  and  _87
REMARK   38  A    between atoms: _87  and  _88
REMARK   39  A    between atoms: _93  and  _95
REMARK   40  A    between atoms: _95  and  _96
REMARK   41  A    between atoms: _95  and  _98
REMARK   42  A    between atoms: _98  and  _99
REMARK   43  A    between atoms: _104  and  _106
REMARK   44  A    between atoms: _106  and  _107
REMARK   45  A    between atoms: _106  and  _109
REMARK   46  A    between atoms: _109  and  _110
REMARK   47  A    between atoms: _110  and  _111
REMARK   48  A    between atoms: _111  and  _112
REMARK   49  A    between atoms: _121  and  _123
REMARK   50  A    between atoms: _123  and  _124
REMARK   51  A    between atoms: _123  and  _126
REMARK   52  A    between atoms: _126  and  _127
REMARK   53  A    between atoms: _132  and  _134
REMARK   54  A    between atoms: _134  and  _135
REMARK   55  A    between atoms: _134  and  _137
REMARK   56  A    between atoms: _137  and  _138
REMARK   57  A    between atoms: _138  and  _139
REMARK   58  A    between atoms: _142  and  _144
REMARK   59  A    between atoms: _144  and  _145
REMARK   60  A    between atoms: _144  and  _147
REMARK   61  A    between atoms: _147  and  _148
REMARK   62  A    between atoms: _149  and  MG_450
REMARK   63  A    between atoms: _153  and  _155
REMARK   64  A    between atoms: _155  and  _156
REMARK   65  A    between atoms: _155  and  _158
REMARK   66  A    between atoms: _158  and  _159
REMARK   67  A    between atoms: _159  and  _160
REMARK   68  A    between atoms: _162  and  _164
REMARK   69  A    between atoms: _164  and  _165
REMARK   70  A    between atoms: _164  and  _167
REMARK   71  A    between atoms: _167  and  _168
REMARK   72  A    between atoms: _173  and  _175
REMARK   73  A    between atoms: _175  and  _176
REMARK   74  A    between atoms: _175  and  _178
REMARK   75  A    between atoms: _178  and  _179
REMARK   76  A    between atoms: _179  and  _180
REMARK   77  A    between atoms: _183  and  _185
REMARK   78  A    between atoms: _185  and  _186
REMARK   79  A    between atoms: _185  and  _188
REMARK   80  A    between atoms: _188  and  _189
REMARK   81  A    between atoms: _189  and  _190
REMARK   82  A    between atoms: _193  and  _195
REMARK   83  A    between atoms: _195  and  _196
REMARK   84  A    between atoms: _195  and  _198
REMARK   85  A    between atoms: _198  and  _199
REMARK   86  A    between atoms: _199  and  _200
REMARK   87  A    between atoms: _202  and  _204
REMARK   88  A    between atoms: _204  and  _205
REMARK   89  A    between atoms: _204  and  _207
REMARK   90  A    between atoms: _207  and  _208
REMARK   91  A    between atoms: _213  and  _214
REMARK   92  A    between atoms: _216  and  _218
REMARK   93  A    between atoms: _218  and  _219
REMARK   94  A    between atoms: _218  and  _221
REMARK   95  A    between atoms: _221  and  _222
REMARK   96  A    between atoms: _222  and  _223
REMARK   97  A    between atoms: _223  and  _224
REMARK   98  A    between atoms: _224  and  _225
REMARK   99  A    between atoms: _229  and  _231
REMARK  100  A    between atoms: _231  and  _232
REMARK  101  A    between atoms: _231  and  _234
REMARK  102  A    between atoms: _236  and  _238
REMARK  103  A    between atoms: _238  and  _239
REMARK  104  A    between atoms: _238  and  _241
REMARK  105  A    between atoms: _241  and  _242
REMARK  106  A    between atoms: _242  and  _243
REMARK  107  A    between atoms: _246  and  _248
REMARK  108  A    between atoms: _248  and  _249
REMARK  109  A    between atoms: _248  and  _251
REMARK  110  A    between atoms: _251  and  _252
REMARK  111  A    between atoms: _257  and  _259
REMARK  112  A    between atoms: _259  and  _260
REMARK  113  A    between atoms: _263  and  _265
REMARK  114  A    between atoms: _265  and  _266
REMARK  115  A    between atoms: _265  and  _268
REMARK  116  A    between atoms: _268  and  _269
REMARK  117  A    between atoms: _269  and  _270
REMARK  118  A    between atoms: _272  and  _274
REMARK  119  A    between atoms: _274  and  _275
REMARK  120  A    between atoms: _274  and  _277
REMARK  121  A    between atoms: _277  and  _278
REMARK  122  A    between atoms: _288  and  _290
REMARK  123  A    between atoms: _290  and  _291
REMARK  124  A    between atoms: _290  and  _293
REMARK  125  A    between atoms: _293  and  _294
REMARK  126  A    between atoms: _297  and  _299
REMARK  127  A    between atoms: _299  and  _300
REMARK  128  A    between atoms: _299  and  _302
REMARK  129  A    between atoms: _302  and  _303
REMARK  130  A    between atoms: _303  and  _304
REMARK  131  A    between atoms: _309  and  _311
REMARK  132  A    between atoms: _311  and  _312
REMARK  133  A    between atoms: _311  and  _314
REMARK  134  A    between atoms: _314  and  _315
REMARK  135  A    between atoms: _318  and  _320
REMARK  136  A    between atoms: _320  and  _321
REMARK  137  A    between atoms: _320  and  _323
REMARK  138  A    between atoms: _323  and  _324
REMARK  139  A    between atoms: _324  and  _325
REMARK  140  A    between atoms: _330  and  _332
REMARK  141  A    between atoms: _332  and  _333
REMARK  142  A    between atoms: _332  and  _335
REMARK  143  A    between atoms: _333  and  _334
REMARK  144  A    between atoms: _333  and  _342
REMARK  145  A    between atoms: _335  and  _336
REMARK  146  A    between atoms: _342  and  _344
REMARK  147  A    between atoms: _344  and  _345
REMARK  148  A    between atoms: _344  and  _347
REMARK  149  A    between atoms: _349  and  _351
REMARK  150  A    between atoms: _351  and  _352
REMARK  151  A    between atoms: _351  and  _354
REMARK  152  A    between atoms: _354  and  _355
REMARK  153  A    between atoms: _355  and  _356
REMARK  154  A    between atoms: _358  and  _360
REMARK  155  A    between atoms: _360  and  _361
REMARK  156  A    between atoms: _360  and  _363
REMARK  157  A    between atoms: _363  and  _364
REMARK  158  A    between atoms: _369  and  _371
REMARK  159  A    between atoms: _371  and  _372
REMARK  160  A    between atoms: _374  and  _376
REMARK  161  A    between atoms: _376  and  _377
REMARK  162  A    between atoms: _376  and  _379
REMARK  163  A    between atoms: _382  and  _384
REMARK  164  A    between atoms: _384  and  _385
REMARK  165  A    between atoms: _384  and  _387
REMARK  166  A    between atoms: _387  and  _388
REMARK  167  A    between atoms: _391  and  _393
REMARK  168  A    between atoms: _393  and  _394
REMARK  169  A    between atoms: _393  and  _396
REMARK  170  A    between atoms: _396  and  _397
REMARK  171  A    between atoms: _399  and  _401
REMARK  172  A    between atoms: _401  and  _402
REMARK  173  A    between atoms: _401  and  _404
REMARK  174  A    between atoms: _404  and  _405
REMARK  175  A    between atoms: _415  and  _417
REMARK  176  A    between atoms: _417  and  _418
REMARK  177  A    between atoms: _417  and  _420
REMARK  178  A    between atoms: _420  and  _421
REMARK  179  A    between atoms: _423  and  _425
REMARK  180  A    between atoms: _425  and  _426
REMARK  181  A    between atoms: _425  and  _428
REMARK  182  A    between atoms: _428  and  _429
REMARK  183  A    between atoms: _429  and  _430
REMARK  184  A    between atoms: _433  and  _435
REMARK  185  A    between atoms: _435  and  _436
REMARK  186  A    between atoms: _435  and  _438
REMARK  187  A    between atoms: _438  and  _439
REMARK  188  A    between atoms: _439  and  _440
REMARK  189  A    between atoms: _440  and  _441
REMARK                            x       y       z     vdW  Elec       q    Type
REMARK                         _______ _______ _______ _____ _____    ______ ____
ROOT
ATOM      1  N   CYS A   1     -12.728 -34.146 -33.407  0.00  0.00    +0.000 NA
ATOM      2  H   CYS A   1     -13.373 -34.866 -33.790  0.00  0.00    +0.000 HD
ENDROOT
BRANCH   1   3
ATOM      3  CA  CYS A   1     -11.310 -34.453 -33.290  0.00  0.00    +0.000 C 
BRANCH   3   4
ATOM      4  C   CYS A   1     -10.495 -33.719 -34.350  0.00  0.00    +0.000 C 
ATOM      5  O   CYS A   1      -9.263 -33.725 -34.314  0.00  0.00    +0.000 OA
ATOM      6  N   MET A   2     -11.175 -33.069 -35.287  0.00  0.00    +0.000 N 
ATOM      7  H   MET A   2     -12.215 -33.065 -35.264  0.00  0.00    +0.000 HD
BRANCH   6   8
ATOM      8  CA  MET A   2     -10.465 -32.358 -36.352  0.00  0.00    +0.000 C 
BRANCH   8   9
ATOM      9  C   MET A   2     -10.642 -30.852 -36.240  0.00  0.00    +0.000 C 
ATOM     10  N   ASN A   3      -9.626 -30.179 -35.696  0.00  0.00    +0.000 N 
ATOM     11  H   ASN A   3      -8.771 -30.700 -35.416  0.00  0.00    +0.000 HD
ATOM     12  O   MET A   2     -11.685 -30.318 -36.621  0.00  0.00    +0.000 OA
BRANCH  10  13
ATOM     13  CA  ASN A   3      -9.675 -28.728 -35.480  0.00  0.00    +0.000 C 
BRANCH  13  14
ATOM     14  C   ASN A   3      -8.395 -28.022 -35.932  0.00  0.00    +0.000 C 
ATOM     15  O   ASN A   3      -8.110 -26.906 -35.490  0.00  0.00    +0.000 OA
ENDBRANCH  13  14
BRANCH  13  16
ATOM     16  CB  ASN A   3      -9.893 -28.373 -33.997  0.00  0.00    +0.000 C 
BRANCH  16  17
ATOM     17  CG  ASN A   3     -10.792 -29.349 -33.253  0.00  0.00    +0.000 C 
ATOM     18  OD1 ASN A   3     -10.452 -29.788 -32.156  0.00  0.00    +0.000 OA
ATOM     19  ND2 ASN A   3     -11.947 -29.660 -33.819  0.00  0.00    +0.000 N 
ATOM     20 HD21 ASN A   3     -12.608 -30.299 -33.334  0.00  0.00    +0.000 HD
ATOM     21 HD22 ASN A   3     -12.193 -29.265 -34.749  0.00  0.00    +0.000 HD
ENDBRANCH  16  17
ENDBRANCH  13  16
ENDBRANCH  10  13
ENDBRANCH   8   9
BRANCH   8  22
ATOM     22  CB  MET A   2     -10.897 -32.877 -37.728  0.00  0.00    +0.000 C 
BRANCH  22  23
ATOM     23  CG  MET A   2     -10.592 -34.366 -37.931  0.00  0.00    +0.000 C 
BRANCH  23  24
ATOM     24  SD  MET A   2     -10.967 -34.933 -39.593  0.00  0.00    +0.000 S 
ATOM     25  CE  MET A   2     -12.752 -34.679 -39.611  0.00  0.00    +0.000 C 
ENDBRANCH  23  24
ENDBRANCH  22  23
ENDBRANCH   8  22
ENDBRANCH   6   8
ENDBRANCH   3   4
BRANCH   3  26
ATOM     26  CB  CYS A   1     -11.070 -35.960 -33.382  0.00  0.00    +0.000 C 
ATOM     27  SG  CYS A   1     -11.586 -36.697 -34.936  0.00  0.00    +0.000 S 
ENDBRANCH   3  26
ENDBRANCH   1   3
BRANCH   1  28
ATOM     28  C   UNK A   0     -13.217 -32.968 -33.036  0.00  0.00    +0.000 C 
BRANCH  28  29
ATOM     29  O   UNK A   0     -12.535 -32.113 -32.507  0.00  0.00    +0.000 OA
ATOM     30 NA   UNK A   0     -11.512 -31.210 -30.583  0.00  0.00    +0.000 Na
ENDBRANCH  28  29
BRANCH  28  31
ATOM     31  C   UNK A   0     -14.686 -32.688 -33.346  0.00  0.00    +0.000 C 
BRANCH  31  33
ATOM     32  C   UNK A   0     -14.838 -33.687 -35.559  0.00  0.00    +0.000 C 
ATOM     33  N   UNK A   0     -15.275 -33.625 -34.299  0.00  0.00    +0.000 N 
ATOM     34  H   UNK A   0     -16.045 -34.253 -33.992  0.00  0.00    +0.000 HD
ATOM     35  O   UNK A   0     -13.918 -32.978 -35.985  0.00  0.00    +0.000 OA
BRANCH  32  36
ATOM     36  C   UNK A   0     -15.520 -34.703 -36.482  0.00  0.00    +0.000 C 
BRANCH  36  37
ATOM     37  N   UNK A   0     -16.610 -35.455 -35.855  0.00  0.00    +0.000 NA
ATOM     38  H   UNK A   0     -17.591 -35.135 -35.985  0.00  0.00    +0.000 HD
ENDBRANCH  36  37
BRANCH  36  39
ATOM     39  C   UNK A   0     -15.975 -34.041 -37.796  0.00  0.00    +0.000 C 
BRANCH  39  40
ATOM     40  C   UNK A   0     -17.062 -32.987 -37.667  0.00  0.00    +0.000 C 
BRANCH  40  41
ATOM     41  C   UNK A   0     -18.454 -33.538 -37.909  0.00  0.00    +0.000 C 
ATOM     42  O   UNK A   0     -18.783 -34.635 -37.468  0.00  0.00    +0.000 OA
ATOM     43  N   UNK A   0     -19.282 -32.772 -38.617  0.00  0.00    +0.000 N 
ATOM     44  H   UNK A   0     -20.250 -33.097 -38.815  0.00  0.00    +0.000 HD
ATOM     45  H   UNK A   0     -18.961 -31.849 -38.972  0.00  0.00    +0.000 HD
ENDBRANCH  40  41
ENDBRANCH  39  40
ENDBRANCH  36  39
ENDBRANCH  32  36
ENDBRANCH  31  33
BRANCH  31  46
ATOM     46  C   UNK A   0     -15.530 -32.539 -32.076  0.00  0.00    +0.000 C 
BRANCH  46  47
ATOM     47  C   UNK A   0     -16.656 -31.555 -32.226  0.00  0.00    +0.000 A 
ATOM     48  C   UNK A   0     -16.439 -30.196 -32.016  0.00  0.00    +0.000 A 
ATOM     49  C   UNK A   0     -17.464 -29.275 -32.183  0.00  0.00    +0.000 A 
ATOM     50  C   UNK A   0     -18.735 -29.711 -32.566  0.00  0.00    +0.000 A 
ATOM     51  C   UNK A   0     -18.965 -31.068 -32.781  0.00  0.00    +0.000 A 
ATOM     52  C   UNK A   0     -17.924 -31.981 -32.615  0.00  0.00    +0.000 A 
ENDBRANCH  46  47
ENDBRANCH  31  46
ENDBRANCH  28  31
ENDBRANCH   1  28
TORSDOF 23
REMARK  Name = ../refined-set-2016/3t0b/3t0b_pocket.pdb
REMARK  189 active torsions:
REMARK  status: ('A' for Active; 'I' for Inactive)
REMARK    1  A    between atoms: _1  and  _3
REMARK    2  A    between atoms: _3  and  _4
REMARK    3  A    between atoms: _3  and  _6
REMARK    4  A    between atoms: _6  and  _7
REMARK    5  A    between atoms: _12  and  _13
REMARK    6  A    between atoms: _15  and  _17
REMARK    7  A    between atoms: _17  and  _18
REMARK    8  A    between atoms: _17  and  _20
REMARK    9  A    between atoms: _20  and  _21
REMARK   10  A    between atoms: _24  and  _26
REMARK   11  A    between atoms: _26  and  _27
REMARK   12  A    between atoms: _26  and  _29
REMARK   13  A    between atoms: _29  and  _30
REMARK   14  A    between atoms: _35  and  _37
REMARK   15  A    between atoms: _37  and  _38
REMARK   16  A    between atoms: _37  and  _40
REMARK   17  A    between atoms: _43  and  _45
REMARK   18  A    between atoms: _45  and  _46
REMARK   19  A    between atoms: _45  and  _48
REMARK   20  A    between atoms: _48  and  _49
REMARK   21  A    between atoms: _52  and  _54
REMARK   22  A    between atoms: _54  and  _55
REMARK   23  A    between atoms: _54  and  _57
REMARK   24  A    between atoms: _57  and  _58
REMARK   25  A    between atoms: _58  and  _59
REMARK   26  A    between atoms: _64  and  _66
REMARK   27  A    between atoms: _66  and  _67
REMARK   28  A    between atoms: _66  and  _69
REMARK   29  A    between atoms: _69  and  _70
REMARK   30  A    between atoms: _73  and  _75
REMARK   31  A    between atoms: _75  and  _76
REMARK   32  A    between atoms: _75  and  _78
REMARK   33  A    between atoms: _78  and  _79
REMARK   34  A    between atoms: _79  and  _80
REMARK   35  A    between atoms: _82  and  _84
REMARK   36  A    between atoms: _84  and  _85
REMARK   37  A    between atoms: _84  and  _87
REMARK   38  A    between atoms: _87  and  _88
REMARK   39  A    between atoms: _93  and  _95
REMARK   40  A    between atoms: _95  and  _96
REMARK   41  A    between atoms: _95  and  _98
REMARK   42  A    between atoms: _98  and  _99
REMARK   43  A    between atoms: _104  and  _106
REMARK   44  A    between atoms: _106  and  _107
REMARK   45  A    between atoms: _106  and  _109
REMARK   46  A    between atoms: _109  and  _110
REMARK   47  A    between atoms: _110  and  _111
REMARK   48  A    between atoms: _111  and  _112
REMARK   49  A    between atoms: _121  and  _123
REMARK   50  A    between atoms: _123  and  _124
REMARK   51  A    between atoms: _123  and  _126
REMARK   52  A    between atoms: _126  and  _127
REMARK   53  A    between atoms: _132  and  _134
REMARK   54  A    between atoms: _134  and  _135
REMARK   55  A    between atoms: _134  and  _137
REMARK   56  A    between atoms: _137  and  _138
REMARK   57  A    between atoms: _138  and  _139
REMARK   58  A    between atoms: _142  and  _144
REMARK   59  A    between atoms: _144  and  _145
REMARK   60  A    between atoms: _144  and  _147
REMARK   61  A    between atoms: _147  and  _148
REMARK   62  A    between atoms: _149  and  MG_450
REMARK   63  A    between atoms: _153  and  _155
REMARK   64  A    between atoms: _155  and  _156
REMARK   65  A    between atoms: _155  and  _158
REMARK   66  A    between atoms: _158  and  _159
REMARK   67  A    between atoms: _159  and  _160
REMARK   68  A    between atoms: _162  and  _164
REMARK   69  A    between atoms: _164  and  _165
REMARK   70  A    between atoms: _164  and  _167
REMARK   71  A    between atoms: _167  and  _168
REMARK   72  A    between atoms: _173  and  _175
REMARK   73  A    between atoms: _175  and  _176
REMARK   74  A    between atoms: _175  and  _178
REMARK   75  A    between atoms: _178  and  _179
REMARK   76  A    between atoms: _179  and  _180
REMARK   77  A    between atoms: _183  and  _185
REMARK   78  A    between atoms: _185  and  _186
REMARK   79  A    between atoms: _185  and  _188
REMARK   80  A    between atoms: _188  and  _189
REMARK   81  A    between atoms: _189  and  _190
REMARK   82  A    between atoms: _193  and  _195
REMARK   83  A    between atoms: _195  and  _196
REMARK   84  A    between atoms: _195  and  _198
REMARK   85  A    between atoms: _198  and  _199
REMARK   86  A    between atoms: _199  and  _200
REMARK   87  A    between atoms: _202  and  _204
REMARK   88  A    between atoms: _204  and  _205
REMARK   89  A    between atoms: _204  and  _207
REMARK   90  A    between atoms: _207  and  _208
REMARK   91  A    between atoms: _213  and  _214
REMARK   92  A    between atoms: _216  and  _218
REMARK   93  A    between atoms: _218  and  _219
REMARK   94  A    between atoms: _218  and  _221
REMARK   95  A    between atoms: _221  and  _222
REMARK   96  A    between atoms: _222  and  _223
REMARK   97  A    between atoms: _223  and  _224
REMARK   98  A    between atoms: _224  and  _225
REMARK   99  A    between atoms: _229  and  _231
REMARK  100  A    between atoms: _231  and  _232
REMARK  101  A    between atoms: _231  and  _234
REMARK  102  A    between atoms: _236  and  _238
REMARK  103  A    between atoms: _238  and  _239
REMARK  104  A    between atoms: _238  and  _241
REMARK  105  A    between atoms: _241  and  _242
REMARK  106  A    between atoms: _242  and  _243
REMARK  107  A    between atoms: _246  and  _248
REMARK  108  A    between atoms: _248  and  _249
REMARK  109  A    between atoms: _248  and  _251
REMARK  110  A    between atoms: _251  and  _252
REMARK  111  A    between atoms: _257  and  _259
REMARK  112  A    between atoms: _259  and  _260
REMARK  113  A    between atoms: _263  and  _265
REMARK  114  A    between atoms: _265  and  _266
REMARK  115  A    between atoms: _265  and  _268
REMARK  116  A    between atoms: _268  and  _269
REMARK  117  A    between atoms: _269  and  _270
REMARK  118  A    between atoms: _272  and  _274
REMARK  119  A    between atoms: _274  and  _275
REMARK  120  A    between atoms: _274  and  _277
REMARK  121  A    between atoms: _277  and  _278
REMARK  122  A    between atoms: _288  and  _290
REMARK  123  A    between atoms: _290  and  _291
REMARK  124  A    between atoms: _290  and  _293
REMARK  125  A    between atoms: _293  and  _294
REMARK  126  A    between atoms: _297  and  _299
REMARK  127  A    between atoms: _299  and  _300
REMARK  128  A    between atoms: _299  and  _302
REMARK  129  A    between atoms: _302  and  _303
REMARK  130  A    between atoms: _303  and  _304
REMARK  131  A    between atoms: _309  and  _311
REMARK  132  A    between atoms: _311  and  _312
REMARK  133  A    between atoms: _311  and  _314
REMARK  134  A    between atoms: _314  and  _315
REMARK  135  A    between atoms: _318  and  _320
REMARK  136  A    between atoms: _320  and  _321
REMARK  137  A    between atoms: _320  and  _323
REMARK  138  A    between atoms: _323  and  _324
REMARK  139  A    between atoms: _324  and  _325
REMARK  140  A    between atoms: _330  and  _332
REMARK  141  A    between atoms: _332  and  _333
REMARK  142  A    between atoms: _332  and  _335
REMARK  143  A    between atoms: _333  and  _334
REMARK  144  A    between atoms: _333  and  _342
REMARK  145  A    between atoms: _335  and  _336
REMARK  146  A    between atoms: _342  and  _344
REMARK  147  A    between atoms: _344  and  _345
REMARK  148  A    between atoms: _344  and  _347
REMARK  149  A    between atoms: _349  and  _351
REMARK  150  A    between atoms: _351  and  _352
REMARK  151  A    between atoms: _351  and  _354
REMARK  152  A    between atoms: _354  and  _355
REMARK  153  A    between atoms: _355  and  _356
REMARK  154  A    between atoms: _358  and  _360
REMARK  155  A    between atoms: _360  and  _361
REMARK  156  A    between atoms: _360  and  _363
REMARK  157  A    between atoms: _363  and  _364
REMARK  158  A    between atoms: _369  and  _371
REMARK  159  A    between atoms: _371  and  _372
REMARK  160  A    between atoms: _374  and  _376
REMARK  161  A    between atoms: _376  and  _377
REMARK  162  A    between atoms: _376  and  _379
REMARK  163  A    between atoms: _382  and  _384
REMARK  164  A    between atoms: _384  and  _385
REMARK  165  A    between atoms: _384  and  _387
REMARK  166  A    between atoms: _387  and  _388
REMARK  167  A    between atoms: _391  and  _393
REMARK  168  A    between atoms: _393  and  _394
REMARK  169  A    between atoms: _393  and  _396
REMARK  170  A    between atoms: _396  and  _397
REMARK  171  A    between atoms: _399  and  _401
REMARK  172  A    between atoms: _401  and  _402
REMARK  173  A    between atoms: _401  and  _404
REMARK  174  A    between atoms: _404  and  _405
REMARK  175  A    between atoms: _415  and  _417
REMARK  176  A    between atoms: _417  and  _418
REMARK  177  A    between atoms: _417  and  _420
REMARK  178  A    between atoms: _420  and  _421
REMARK  179  A    between atoms: _423  and  _425
REMARK  180  A    between atoms: _425  and  _426
REMARK  181  A    between atoms: _425  and  _428
REMARK  182  A    between atoms: _428  and  _429
REMARK  183  A    between atoms: _429  and  _430
REMARK  184  A    between atoms: _433  and  _435
REMARK  185  A    between atoms: _435  and  _436
REMARK  186  A    between atoms: _435  and  _438
REMARK  187  A    between atoms: _438  and  _439
REMARK  188  A    between atoms: _439  and  _440
REMARK  189  A    between atoms: _440  and  _441
REMARK                            x       y       z     vdW  Elec       q    Type
REMARK                         _______ _______ _______ _____ _____    ______ ____
ROOT
ATOM      1  C   GLY A   1     -22.152 -28.333 -33.447  0.00  0.00    +0.240 C 
ATOM      2  N   VAL A   2     -22.783 -28.417 -32.278  0.00  0.00    -0.298 N 
ATOM      3  H   VAL A   2     -23.181 -27.553 -31.858  0.00  0.00    +0.150 HD
ATOM      4  O   GLY A   1     -21.684 -29.308 -34.035  0.00  0.00    -0.274 OA
ENDROOT
BRANCH   1   5
ATOM      5  CA  GLY A   1     -22.044 -26.950 -34.051  0.00  0.00    +0.169 C 
BRANCH   5   6
ATOM      6  N   GLY A   1     -22.276 -26.979 -35.490  0.00  0.00    -0.236 NA
ATOM      7  H   GLY A   1     -21.500 -26.725 -36.134  0.00  0.00    +0.142 HD
ENDBRANCH   5   6
ENDBRANCH   1   5
BRANCH   2   8
ATOM      8  CA  VAL A   2     -22.936 -29.694 -31.561  0.00  0.00    +0.137 C 
BRANCH   8   9
ATOM      9  CB  VAL A   2     -22.680 -29.538 -30.034  0.00  0.00    +0.026 C 
ATOM     10  CG2 VAL A   2     -23.575 -28.435 -29.425  0.00  0.00    +0.002 C 
ATOM     11  CG1 VAL A   2     -21.205 -29.287 -29.762  0.00  0.00    +0.002 C 
ENDBRANCH   8   9
BRANCH   8  12
ATOM     12  C   VAL A   2     -24.304 -30.367 -31.776  0.00  0.00    +0.227 C 
ATOM     13  O   VAL A   2     -24.649 -31.333 -31.079  0.00  0.00    -0.286 OA
ENDBRANCH   8  12
ENDBRANCH   2   8
TORSDOF 5
REMARK  Name = ../refined-set-2016/3t0b/3t0b_pocket.pdb
REMARK  189 active torsions:
REMARK  status: ('A' for Active; 'I' for Inactive)
REMARK    1  A    between atoms: _1  and  _3
REMARK    2  A    between atoms: _3  and  _4
REMARK    3  A    between atoms: _3  and  _6
REMARK    4  A    between atoms: _6  and  _7
REMARK    5  A    between atoms: _12  and  _13
REMARK    6  A    between atoms: _15  and  _17
REMARK    7  A    between atoms: _17  and  _18
REMARK    8  A    between atoms: _17  and  _20
REMARK    9  A    between atoms: _20  and  _21
REMARK   10  A    between atoms: _24  and  _26
REMARK   11  A    between atoms: _26  and  _27
REMARK   12  A    between atoms: _26  and  _29
REMARK   13  A    between atoms: _29  and  _30
REMARK   14  A    between atoms: _35  and  _37
REMARK   15  A    between atoms: _37  and  _38
REMARK   16  A    between atoms: _37  and  _40
REMARK   17  A    between atoms: _43  and  _45
REMARK   18  A    between atoms: _45  and  _46
REMARK   19  A    between atoms: _45  and  _48
REMARK   20  A    between atoms: _48  and  _49
REMARK   21  A    between atoms: _52  and  _54
REMARK   22  A    between atoms: _54  and  _55
REMARK   23  A    between atoms: _54  and  _57
REMARK   24  A    between atoms: _57  and  _58
REMARK   25  A    between atoms: _58  and  _59
REMARK   26  A    between atoms: _64  and  _66
REMARK   27  A    between atoms: _66  and  _67
REMARK   28  A    between atoms: _66  and  _69
REMARK   29  A    between atoms: _69  and  _70
REMARK   30  A    between atoms: _73  and  _75
REMARK   31  A    between atoms: _75  and  _76
REMARK   32  A    between atoms: _75  and  _78
REMARK   33  A    between atoms: _78  and  _79
REMARK   34  A    between atoms: _79  and  _80
REMARK   35  A    between atoms: _82  and  _84
REMARK   36  A    between atoms: _84  and  _85
REMARK   37  A    between atoms: _84  and  _87
REMARK   38  A    between atoms: _87  and  _88
REMARK   39  A    between atoms: _93  and  _95
REMARK   40  A    between atoms: _95  and  _96
REMARK   41  A    between atoms: _95  and  _98
REMARK   42  A    between atoms: _98  and  _99
REMARK   43  A    between atoms: _104  and  _106
REMARK   44  A    between atoms: _106  and  _107
REMARK   45  A    between atoms: _106  and  _109
REMARK   46  A    between atoms: _109  and  _110
REMARK   47  A    between atoms: _110  and  _111
REMARK   48  A    between atoms: _111  and  _112
REMARK   49  A    between atoms: _121  and  _123
REMARK   50  A    between atoms: _123  and  _124
REMARK   51  A    between atoms: _123  and  _126
REMARK   52  A    between atoms: _126  and  _127
REMARK   53  A    between atoms: _132  and  _134
REMARK   54  A    between atoms: _134  and  _135
REMARK   55  A    between atoms: _134  and  _137
REMARK   56  A    between atoms: _137  and  _138
REMARK   57  A    between atoms: _138  and  _139
REMARK   58  A    between atoms: _142  and  _144
REMARK   59  A    between atoms: _144  and  _145
REMARK   60  A    between atoms: _144  and  _147
REMARK   61  A    between atoms: _147  and  _148
REMARK   62  A    between atoms: _149  and  MG_450
REMARK   63  A    between atoms: _153  and  _155
REMARK   64  A    between atoms: _155  and  _156
REMARK   65  A    between atoms: _155  and  _158
REMARK   66  A    between atoms: _158  and  _159
REMARK   67  A    between atoms: _159  and  _160
REMARK   68  A    between atoms: _162  and  _164
REMARK   69  A    between atoms: _164  and  _165
REMARK   70  A    between atoms: _164  and  _167
REMARK   71  A    between atoms: _167  and  _168
REMARK   72  A    between atoms: _173  and  _175
REMARK   73  A    between atoms: _175  and  _176
REMARK   74  A    between atoms: _175  and  _178
REMARK   75  A    between atoms: _178  and  _179
REMARK   76  A    between atoms: _179  and  _180
REMARK   77  A    between atoms: _183  and  _185
REMARK   78  A    between atoms: _185  and  _186
REMARK   79  A    between atoms: _185  and  _188
REMARK   80  A    between atoms: _188  and  _189
REMARK   81  A    between atoms: _189  and  _190
REMARK   82  A    between atoms: _193  and  _195
REMARK   83  A    between atoms: _195  and  _196
REMARK   84  A    between atoms: _195  and  _198
REMARK   85  A    between atoms: _198  and  _199
REMARK   86  A    between atoms: _199  and  _200
REMARK   87  A    between atoms: _202  and  _204
REMARK   88  A    between atoms: _204  and  _205
REMARK   89  A    between atoms: _204  and  _207
REMARK   90  A    between atoms: _207  and  _208
REMARK   91  A    between atoms: _213  and  _214
REMARK   92  A    between atoms: _216  and  _218
REMARK   93  A    between atoms: _218  and  _219
REMARK   94  A    between atoms: _218  and  _221
REMARK   95  A    between atoms: _221  and  _222
REMARK   96  A    between atoms: _222  and  _223
REMARK   97  A    between atoms: _223  and  _224
REMARK   98  A    between atoms: _224  and  _225
REMARK   99  A    between atoms: _229  and  _231
REMARK  100  A    between atoms: _231  and  _232
REMARK  101  A    between atoms: _231  and  _234
REMARK  102  A    between atoms: _236  and  _238
REMARK  103  A    between atoms: _238  and  _239
REMARK  104  A    between atoms: _238  and  _241
REMARK  105  A    between atoms: _241  and  _242
REMARK  106  A    between atoms: _242  and  _243
REMARK  107  A    between atoms: _246  and  _248
REMARK  108  A    between atoms: _248  and  _249
REMARK  109  A    between atoms: _248  and  _251
REMARK  110  A    between atoms: _251  and  _252
REMARK  111  A    between atoms: _257  and  _259
REMARK  112  A    between atoms: _259  and  _260
REMARK  113  A    between atoms: _263  and  _265
REMARK  114  A    between atoms: _265  and  _266
REMARK  115  A    between atoms: _265  and  _268
REMARK  116  A    between atoms: _268  and  _269
REMARK  117  A    between atoms: _269  and  _270
REMARK  118  A    between atoms: _272  and  _274
REMARK  119  A    between atoms: _274  and  _275
REMARK  120  A    between atoms: _274  and  _277
REMARK  121  A    between atoms: _277  and  _278
REMARK  122  A    between atoms: _288  and  _290
REMARK  123  A    between atoms: _290  and  _291
REMARK  124  A    between atoms: _290  and  _293
REMARK  125  A    between atoms: _293  and  _294
REMARK  126  A    between atoms: _297  and  _299
REMARK  127  A    between atoms: _299  and  _300
REMARK  128  A    between atoms: _299  and  _302
REMARK  129  A    between atoms: _302  and  _303
REMARK  130  A    between atoms: _303  and  _304
REMARK  131  A    between atoms: _309  and  _311
REMARK  132  A    between atoms: _311  and  _312
REMARK  133  A    between atoms: _311  and  _314
REMARK  134  A    between atoms: _314  and  _315
REMARK  135  A    between atoms: _318  and  _320
REMARK  136  A    between atoms: _320  and  _321
REMARK  137  A    between atoms: _320  and  _323
REMARK  138  A    between atoms: _323  and  _324
REMARK  139  A    between atoms: _324  and  _325
REMARK  140  A    between atoms: _330  and  _332
REMARK  141  A    between atoms: _332  and  _333
REMARK  142  A    between atoms: _332  and  _335
REMARK  143  A    between atoms: _333  and  _334
REMARK  144  A    between atoms: _333  and  _342
REMARK  145  A    between atoms: _335  and  _336
REMARK  146  A    between atoms: _342  and  _344
REMARK  147  A    between atoms: _344  and  _345
REMARK  148  A    between atoms: _344  and  _347
REMARK  149  A    between atoms: _349  and  _351
REMARK  150  A    between atoms: _351  and  _352
REMARK  151  A    between atoms: _351  and  _354
REMARK  152  A    between atoms: _354  and  _355
REMARK  153  A    between atoms: _355  and  _356
REMARK  154  A    between atoms: _358  and  _360
REMARK  155  A    between atoms: _360  and  _361
REMARK  156  A    between atoms: _360  and  _363
REMARK  157  A    between atoms: _363  and  _364
REMARK  158  A    between atoms: _369  and  _371
REMARK  159  A    between atoms: _371  and  _372
REMARK  160  A    between atoms: _374  and  _376
REMARK  161  A    between atoms: _376  and  _377
REMARK  162  A    between atoms: _376  and  _379
REMARK  163  A    between atoms: _382  and  _384
REMARK  164  A    between atoms: _384  and  _385
REMARK  165  A    between atoms: _384  and  _387
REMARK  166  A    between atoms: _387  and  _388
REMARK  167  A    between atoms: _391  and  _393
REMARK  168  A    between atoms: _393  and  _394
REMARK  169  A    between atoms: _393  and  _396
REMARK  170  A    between atoms: _396  and  _397
REMARK  171  A    between atoms: _399  and  _401
REMARK  172  A    between atoms: _401  and  _402
REMARK  173  A    between atoms: _401  and  _404
REMARK  174  A    between atoms: _404  and  _405
REMARK  175  A    between atoms: _415  and  _417
REMARK  176  A    between atoms: _417  and  _418
REMARK  177  A    between atoms: _417  and  _420
REMARK  178  A    between atoms: _420  and  _421
REMARK  179  A    between atoms: _423  and  _425
REMARK  180  A    between atoms: _425  and  _426
REMARK  181  A    between atoms: _425  and  _428
REMARK  182  A    between atoms: _428  and  _429
REMARK  183  A    between atoms: _429  and  _430
REMARK  184  A    between atoms: _433  and  _435
REMARK  185  A    between atoms: _435  and  _436
REMARK  186  A    between atoms: _435  and  _438
REMARK  187  A    between atoms: _438  and  _439
REMARK  188  A    between atoms: _439  and  _440
REMARK  189  A    between atoms: _440  and  _441
REMARK                            x       y       z     vdW  Elec       q    Type
REMARK                         _______ _______ _______ _____ _____    ______ ____
ROOT
ATOM      1  CA  TRP A   3     -20.425 -25.053 -30.646  0.00  0.00    +0.153 C 
ENDROOT
BRANCH   1   3
ATOM      2  C   SER A   2     -18.749 -25.008 -32.416  0.00  0.00    +0.243 C 
ATOM      3  N   TRP A   3     -19.305 -24.421 -31.355  0.00  0.00    -0.297 N 
ATOM      4  H   TRP A   3     -18.941 -23.504 -31.026  0.00  0.00    +0.150 HD
ATOM      5  O   SER A   2     -19.150 -26.093 -32.862  0.00  0.00    -0.273 OA
BRANCH   2   6
ATOM      6  CA  SER A   2     -17.581 -24.273 -33.086  0.00  0.00    +0.178 C 
BRANCH   6   8
ATOM      7  C   ASP A   1     -16.623 -22.169 -32.341  0.00  0.00    +0.239 C 
ATOM      8  N   SER A   2     -16.781 -23.477 -32.155  0.00  0.00    -0.295 N 
ATOM      9  H   SER A   2     -16.331 -23.939 -31.339  0.00  0.00    +0.150 HD
ATOM     10  O   ASP A   1     -17.082 -21.581 -33.322  0.00  0.00    -0.274 OA
BRANCH   7  11
ATOM     11  CA  ASP A   1     -15.805 -21.391 -31.303  0.00  0.00    +0.156 C 
BRANCH  11  12
ATOM     12  N   ASP A   1     -15.731 -19.996 -31.751  0.00  0.00    -0.238 NA
ATOM     13  H   ASP A   1     -16.529 -19.609 -32.294  0.00  0.00    +0.142 HD
ENDBRANCH  11  12
BRANCH  11  14
ATOM     14  CB  ASP A   1     -16.370 -21.512 -29.879  0.00  0.00    +0.140 C 
BRANCH  14  15
ATOM     15  CG  ASP A   1     -17.793 -21.004 -29.757  0.00  0.00    +0.367 C 
ATOM     16  OD2 ASP A   1     -18.003 -19.999 -29.059  0.00  0.00    -0.246 OA
ATOM     17  OD1 ASP A   1     -18.708 -21.612 -30.340  0.00  0.00    -0.246 OA
ENDBRANCH  14  15
ENDBRANCH  11  14
ENDBRANCH   7  11
ENDBRANCH   6   8
BRANCH   6  18
ATOM     18  CB  SER A   2     -16.691 -25.261 -33.837  0.00  0.00    +0.166 C 
BRANCH  18  19
ATOM     19  OG  SER A   2     -15.593 -24.604 -34.442  0.00  0.00    -0.380 OA
ATOM     20  H   SER A   2     -15.927 -23.928 -35.084  0.00  0.00    +0.211 HD
ENDBRANCH  18  19
ENDBRANCH   6  18
ENDBRANCH   2   6
ENDBRANCH   1   3
BRANCH   1  21
ATOM     21  C   TRP A   3     -21.547 -24.065 -30.303  0.00  0.00    +0.241 C 
ATOM     22  O   TRP A   3     -22.527 -24.410 -29.646  0.00  0.00    -0.273 OA
ATOM     23  N   SER A   4     -21.388 -22.835 -30.779  0.00  0.00    -0.296 N 
ATOM     24  H   SER A   4     -20.493 -22.604 -31.256  0.00  0.00    +0.150 HD
BRANCH  23  25
ATOM     25  CA  SER A   4     -22.398 -21.793 -30.670  0.00  0.00    +0.166 C 
BRANCH  25  26
ATOM     26  C   SER A   4     -22.255 -20.900 -31.892  0.00  0.00    +0.229 C 
ATOM     27  O   SER A   4     -21.174 -20.838 -32.477  0.00  0.00    -0.286 OA
ENDBRANCH  25  26
BRANCH  25  28
ATOM     28  CB  SER A   4     -22.206 -20.969 -29.389  0.00  0.00    +0.165 C 
BRANCH  28  29
ATOM     29  OG  SER A   4     -21.017 -20.189 -29.456  0.00  0.00    -0.380 OA
ATOM     30  H   SER A   4     -20.237 -20.788 -29.568  0.00  0.00    +0.211 HD
ENDBRANCH  28  29
ENDBRANCH  25  28
ENDBRANCH  23  25
ENDBRANCH   1  21
BRANCH   1  31
ATOM     31  CB  TRP A   3     -19.930 -25.830 -29.416  0.00  0.00    +0.057 C 
BRANCH  31  32
ATOM     32  CG  TRP A   3     -18.938 -25.097 -28.557  0.00  0.00    -0.002 A 
ATOM     33  CD1 TRP A   3     -19.212 -24.365 -27.435  0.00  0.00    +0.068 A 
ATOM     34  NE1 TRP A   3     -18.057 -23.849 -26.908  0.00  0.00    -0.352 N 
ATOM     35  HE1 TRP A   3     -17.993 -23.251 -26.059  0.00  0.00    +0.166 HD
ATOM     36  CE2 TRP A   3     -16.999 -24.250 -27.683  0.00  0.00    +0.056 A 
ATOM     37  CZ2 TRP A   3     -15.630 -23.982 -27.551  0.00  0.00    +0.017 A 
ATOM     38  CH2 TRP A   3     -14.788 -24.513 -28.493  0.00  0.00    +0.001 A 
ATOM     39  CZ3 TRP A   3     -15.271 -25.302 -29.550  0.00  0.00    +0.000 A 
ATOM     40  CE3 TRP A   3     -16.631 -25.579 -29.677  0.00  0.00    +0.001 A 
ATOM     41  CD2 TRP A   3     -17.518 -25.041 -28.733  0.00  0.00    +0.013 A 
ENDBRANCH  31  32
ENDBRANCH   1  31
TORSDOF 16
REMARK  Name = ../refined-set-2016/3t0b/3t0b_pocket.pdb
REMARK  189 active torsions:
REMARK  status: ('A' for Active; 'I' for Inactive)
REMARK    1  A    between atoms: _1  and  _3
REMARK    2  A    between atoms: _3  and  _4
REMARK    3  A    between atoms: _3  and  _6
REMARK    4  A    between atoms: _6  and  _7
REMARK    5  A    between atoms: _12  and  _13
REMARK    6  A    between atoms: _15  and  _17
REMARK    7  A    between atoms: _17  and  _18
REMARK    8  A    between atoms: _17  and  _20
REMARK    9  A    between atoms: _20  and  _21
REMARK   10  A    between atoms: _24  and  _26
REMARK   11  A    between atoms: _26  and  _27
REMARK   12  A    between atoms: _26  and  _29
REMARK   13  A    between atoms: _29  and  _30
REMARK   14  A    between atoms: _35  and  _37
REMARK   15  A    between atoms: _37  and  _38
REMARK   16  A    between atoms: _37  and  _40
REMARK   17  A    between atoms: _43  and  _45
REMARK   18  A    between atoms: _45  and  _46
REMARK   19  A    between atoms: _45  and  _48
REMARK   20  A    between atoms: _48  and  _49
REMARK   21  A    between atoms: _52  and  _54
REMARK   22  A    between atoms: _54  and  _55
REMARK   23  A    between atoms: _54  and  _57
REMARK   24  A    between atoms: _57  and  _58
REMARK   25  A    between atoms: _58  and  _59
REMARK   26  A    between atoms: _64  and  _66
REMARK   27  A    between atoms: _66  and  _67
REMARK   28  A    between atoms: _66  and  _69
REMARK   29  A    between atoms: _69  and  _70
REMARK   30  A    between atoms: _73  and  _75
REMARK   31  A    between atoms: _75  and  _76
REMARK   32  A    between atoms: _75  and  _78
REMARK   33  A    between atoms: _78  and  _79
REMARK   34  A    between atoms: _79  and  _80
REMARK   35  A    between atoms: _82  and  _84
REMARK   36  A    between atoms: _84  and  _85
REMARK   37  A    between atoms: _84  and  _87
REMARK   38  A    between atoms: _87  and  _88
REMARK   39  A    between atoms: _93  and  _95
REMARK   40  A    between atoms: _95  and  _96
REMARK   41  A    between atoms: _95  and  _98
REMARK   42  A    between atoms: _98  and  _99
REMARK   43  A    between atoms: _104  and  _106
REMARK   44  A    between atoms: _106  and  _107
REMARK   45  A    between atoms: _106  and  _109
REMARK   46  A    between atoms: _109  and  _110
REMARK   47  A    between atoms: _110  and  _111
REMARK   48  A    between atoms: _111  and  _112
REMARK   49  A    between atoms: _121  and  _123
REMARK   50  A    between atoms: _123  and  _124
REMARK   51  A    between atoms: _123  and  _126
REMARK   52  A    between atoms: _126  and  _127
REMARK   53  A    between atoms: _132  and  _134
REMARK   54  A    between atoms: _134  and  _135
REMARK   55  A    between atoms: _134  and  _137
REMARK   56  A    between atoms: _137  and  _138
REMARK   57  A    between atoms: _138  and  _139
REMARK   58  A    between atoms: _142  and  _144
REMARK   59  A    between atoms: _144  and  _145
REMARK   60  A    between atoms: _144  and  _147
REMARK   61  A    between atoms: _147  and  _148
REMARK   62  A    between atoms: _149  and  MG_450
REMARK   63  A    between atoms: _153  and  _155
REMARK   64  A    between atoms: _155  and  _156
REMARK   65  A    between atoms: _155  and  _158
REMARK   66  A    between atoms: _158  and  _159
REMARK   67  A    between atoms: _159  and  _160
REMARK   68  A    between atoms: _162  and  _164
REMARK   69  A    between atoms: _164  and  _165
REMARK   70  A    between atoms: _164  and  _167
REMARK   71  A    between atoms: _167  and  _168
REMARK   72  A    between atoms: _173  and  _175
REMARK   73  A    between atoms: _175  and  _176
REMARK   74  A    between atoms: _175  and  _178
REMARK   75  A    between atoms: _178  and  _179
REMARK   76  A    between atoms: _179  and  _180
REMARK   77  A    between atoms: _183  and  _185
REMARK   78  A    between atoms: _185  and  _186
REMARK   79  A    between atoms: _185  and  _188
REMARK   80  A    between atoms: _188  and  _189
REMARK   81  A    between atoms: _189  and  _190
REMARK   82  A    between atoms: _193  and  _195
REMARK   83  A    between atoms: _195  and  _196
REMARK   84  A    between atoms: _195  and  _198
REMARK   85  A    between atoms: _198  and  _199
REMARK   86  A    between atoms: _199  and  _200
REMARK   87  A    between atoms: _202  and  _204
REMARK   88  A    between atoms: _204  and  _205
REMARK   89  A    between atoms: _204  and  _207
REMARK   90  A    between atoms: _207  and  _208
REMARK   91  A    between atoms: _213  and  _214
REMARK   92  A    between atoms: _216  and  _218
REMARK   93  A    between atoms: _218  and  _219
REMARK   94  A    between atoms: _218  and  _221
REMARK   95  A    between atoms: _221  and  _222
REMARK   96  A    between atoms: _222  and  _223
REMARK   97  A    between atoms: _223  and  _224
REMARK   98  A    between atoms: _224  and  _225
REMARK   99  A    between atoms: _229  and  _231
REMARK  100  A    between atoms: _231  and  _232
REMARK  101  A    between atoms: _231  and  _234
REMARK  102  A    between atoms: _236  and  _238
REMARK  103  A    between atoms: _238  and  _239
REMARK  104  A    between atoms: _238  and  _241
REMARK  105  A    between atoms: _241  and  _242
REMARK  106  A    between atoms: _242  and  _243
REMARK  107  A    between atoms: _246  and  _248
REMARK  108  A    between atoms: _248  and  _249
REMARK  109  A    between atoms: _248  and  _251
REMARK  110  A    between atoms: _251  and  _252
REMARK  111  A    between atoms: _257  and  _259
REMARK  112  A    between atoms: _259  and  _260
REMARK  113  A    between atoms: _263  and  _265
REMARK  114  A    between atoms: _265  and  _266
REMARK  115  A    between atoms: _265  and  _268
REMARK  116  A    between atoms: _268  and  _269
REMARK  117  A    between atoms: _269  and  _270
REMARK  118  A    between atoms: _272  and  _274
REMARK  119  A    between atoms: _274  and  _275
REMARK  120  A    between atoms: _274  and  _277
REMARK  121  A    between atoms: _277  and  _278
REMARK  122  A    between atoms: _288  and  _290
REMARK  123  A    between atoms: _290  and  _291
REMARK  124  A    between atoms: _290  and  _293
REMARK  125  A    between atoms: _293  and  _294
REMARK  126  A    between atoms: _297  and  _299
REMARK  127  A    between atoms: _299  and  _300
REMARK  128  A    between atoms: _299  and  _302
REMARK  129  A    between atoms: _302  and  _303
REMARK  130  A    between atoms: _303  and  _304
REMARK  131  A    between atoms: _309  and  _311
REMARK  132  A    between atoms: _311  and  _312
REMARK  133  A    between atoms: _311  and  _314
REMARK  134  A    between atoms: _314  and  _315
REMARK  135  A    between atoms: _318  and  _320
REMARK  136  A    between atoms: _320  and  _321
REMARK  137  A    between atoms: _320  and  _323
REMARK  138  A    between atoms: _323  and  _324
REMARK  139  A    between atoms: _324  and  _325
REMARK  140  A    between atoms: _330  and  _332
REMARK  141  A    between atoms: _332  and  _333
REMARK  142  A    between atoms: _332  and  _335
REMARK  143  A    between atoms: _333  and  _334
REMARK  144  A    between atoms: _333  and  _342
REMARK  145  A    between atoms: _335  and  _336
REMARK  146  A    between atoms: _342  and  _344
REMARK  147  A    between atoms: _344  and  _345
REMARK  148  A    between atoms: _344  and  _347
REMARK  149  A    between atoms: _349  and  _351
REMARK  150  A    between atoms: _351  and  _352
REMARK  151  A    between atoms: _351  and  _354
REMARK  152  A    between atoms: _354  and  _355
REMARK  153  A    between atoms: _355  and  _356
REMARK  154  A    between atoms: _358  and  _360
REMARK  155  A    between atoms: _360  and  _361
REMARK  156  A    between atoms: _360  and  _363
REMARK  157  A    between atoms: _363  and  _364
REMARK  158  A    between atoms: _369  and  _371
REMARK  159  A    between atoms: _371  and  _372
REMARK  160  A    between atoms: _374  and  _376
REMARK  161  A    between atoms: _376  and  _377
REMARK  162  A    between atoms: _376  and  _379
REMARK  163  A    between atoms: _382  and  _384
REMARK  164  A    between atoms: _384  and  _385
REMARK  165  A    between atoms: _384  and  _387
REMARK  166  A    between atoms: _387  and  _388
REMARK  167  A    between atoms: _391  and  _393
REMARK  168  A    between atoms: _393  and  _394
REMARK  169  A    between atoms: _393  and  _396
REMARK  170  A    between atoms: _396  and  _397
REMARK  171  A    between atoms: _399  and  _401
REMARK  172  A    between atoms: _401  and  _402
REMARK  173  A    between atoms: _401  and  _404
REMARK  174  A    between atoms: _404  and  _405
REMARK  175  A    between atoms: _415  and  _417
REMARK  176  A    between atoms: _417  and  _418
REMARK  177  A    between atoms: _417  and  _420
REMARK  178  A    between atoms: _420  and  _421
REMARK  179  A    between atoms: _423  and  _425
REMARK  180  A    between atoms: _425  and  _426
REMARK  181  A    between atoms: _425  and  _428
REMARK  182  A    between atoms: _428  and  _429
REMARK  183  A    between atoms: _429  and  _430
REMARK  184  A    between atoms: _433  and  _435
REMARK  185  A    between atoms: _435  and  _436
REMARK  186  A    between atoms: _435  and  _438
REMARK  187  A    between atoms: _438  and  _439
REMARK  188  A    between atoms: _439  and  _440
REMARK  189  A    between atoms: _440  and  _441
REMARK                            x       y       z     vdW  Elec       q    Type
REMARK                         _______ _______ _______ _____ _____    ______ ____
ROOT
ATOM      1  CA  ARG A   2     -20.475 -28.548 -16.003  0.00  0.00    +0.137 C 
ENDROOT
BRANCH   1   3
ATOM      2  C   GLU A   1     -20.102 -26.385 -17.076  0.00  0.00    +0.238 C 
ATOM      3  N   ARG A   2     -19.808 -27.243 -16.103  0.00  0.00    -0.298 N 
ATOM      4  H   ARG A   2     -19.090 -26.984 -15.397  0.00  0.00    +0.150 HD
ATOM      5  O   GLU A   1     -20.975 -26.614 -17.909  0.00  0.00    -0.274 OA
BRANCH   2   6
ATOM      6  CA  GLU A   1     -19.300 -25.069 -17.133  0.00  0.00    +0.145 C 
BRANCH   6   7
ATOM      7  N   GLU A   1     -18.653 -24.656 -15.877  0.00  0.00    -0.238 NA
ATOM      8  H   GLU A   1     -17.630 -24.469 -15.891  0.00  0.00    +0.142 HD
ENDBRANCH   6   7
BRANCH   6   9
ATOM      9  CB  GLU A   1     -18.260 -25.154 -18.262  0.00  0.00    +0.038 C 
BRANCH   9  10
ATOM     10  CG  GLU A   1     -17.615 -23.825 -18.644  0.00  0.00    +0.116 C 
BRANCH  10  11
ATOM     11  CD  GLU A   1     -16.360 -23.495 -17.832  0.00  0.00    +0.365 C 
ATOM     12  OE2 GLU A   1     -16.139 -24.088 -16.744  0.00  0.00    -0.246 OA
ATOM     13  OE1 GLU A   1     -15.589 -22.624 -18.290  0.00  0.00    -0.246 OA
ENDBRANCH  10  11
ENDBRANCH   9  10
ENDBRANCH   6   9
ENDBRANCH   2   6
ENDBRANCH   1   3
BRANCH   1  14
ATOM     14  C   ARG A   2     -21.609 -28.559 -14.977  0.00  0.00    +0.227 C 
ATOM     15  O   ARG A   2     -22.240 -29.591 -14.749  0.00  0.00    -0.286 OA
ENDBRANCH   1  14
BRANCH   1  16
ATOM     16  CB  ARG A   2     -19.458 -29.656 -15.694  0.00  0.00    +0.031 C 
BRANCH  16  17
ATOM     17  CG  ARG A   2     -18.378 -29.828 -16.765  0.00  0.00    +0.045 C 
BRANCH  17  18
ATOM     18  CD  ARG A   2     -18.882 -30.640 -17.951  0.00  0.00    +0.174 C 
BRANCH  18  19
ATOM     19  NE  ARG A   2     -19.103 -32.046 -17.601  0.00  0.00    -0.265 N 
ATOM     20  HE  ARG A   2     -18.669 -32.398 -16.724  0.00  0.00    +0.259 HD
ATOM     21  CZ  ARG A   2     -19.819 -32.905 -18.324  0.00  0.00    +0.342 C 
ATOM     22  NH2 ARG A   2     -19.964 -34.156 -17.916  0.00  0.00    -0.292 N 
ATOM     23 HH21 ARG A   2     -19.518 -34.469 -17.030  0.00  0.00    +0.255 HD
ATOM     24 HH22 ARG A   2     -20.523 -34.826 -18.482  0.00  0.00    +0.255 HD
ATOM     25  NH1 ARG A   2     -20.393 -32.520 -19.455  0.00  0.00    -0.292 N 
ATOM     26 HH11 ARG A   2     -20.286 -31.540 -19.785  0.00  0.00    +0.255 HD
ATOM     27 HH12 ARG A   2     -20.950 -33.198 -20.013  0.00  0.00    +0.255 HD
ENDBRANCH  18  19
ENDBRANCH  17  18
ENDBRANCH  16  17
ENDBRANCH   1  16
TORSDOF 11
REMARK  Name = ../refined-set-2016/3t0b/3t0b_pocket.pdb
REMARK  189 active torsions:
REMARK  status: ('A' for Active; 'I' for Inactive)
REMARK    1  A    between atoms: _1  and  _3
REMARK    2  A    between atoms: _3  and  _4
REMARK    3  A    between atoms: _3  and  _6
REMARK    4  A    between atoms: _6  and  _7
REMARK    5  A    between atoms: _12  and  _13
REMARK    6  A    between atoms: _15  and  _17
REMARK    7  A    between atoms: _17  and  _18
REMARK    8  A    between atoms: _17  and  _20
REMARK    9  A    between atoms: _20  and  _21
REMARK   10  A    between atoms: _24  and  _26
REMARK   11  A    between atoms: _26  and  _27
REMARK   12  A    between atoms: _26  and  _29
REMARK   13  A    between atoms: _29  and  _30
REMARK   14  A    between atoms: _35  and  _37
REMARK   15  A    between atoms: _37  and  _38
REMARK   16  A    between atoms: _37  and  _40
REMARK   17  A    between atoms: _43  and  _45
REMARK   18  A    between atoms: _45  and  _46
REMARK   19  A    between atoms: _45  and  _48
REMARK   20  A    between atoms: _48  and  _49
REMARK   21  A    between atoms: _52  and  _54
REMARK   22  A    between atoms: _54  and  _55
REMARK   23  A    between atoms: _54  and  _57
REMARK   24  A    between atoms: _57  and  _58
REMARK   25  A    between atoms: _58  and  _59
REMARK   26  A    between atoms: _64  and  _66
REMARK   27  A    between atoms: _66  and  _67
REMARK   28  A    between atoms: _66  and  _69
REMARK   29  A    between atoms: _69  and  _70
REMARK   30  A    between atoms: _73  and  _75
REMARK   31  A    between atoms: _75  and  _76
REMARK   32  A    between atoms: _75  and  _78
REMARK   33  A    between atoms: _78  and  _79
REMARK   34  A    between atoms: _79  and  _80
REMARK   35  A    between atoms: _82  and  _84
REMARK   36  A    between atoms: _84  and  _85
REMARK   37  A    between atoms: _84  and  _87
REMARK   38  A    between atoms: _87  and  _88
REMARK   39  A    between atoms: _93  and  _95
REMARK   40  A    between atoms: _95  and  _96
REMARK   41  A    between atoms: _95  and  _98
REMARK   42  A    between atoms: _98  and  _99
REMARK   43  A    between atoms: _104  and  _106
REMARK   44  A    between atoms: _106  and  _107
REMARK   45  A    between atoms: _106  and  _109
REMARK   46  A    between atoms: _109  and  _110
REMARK   47  A    between atoms: _110  and  _111
REMARK   48  A    between atoms: _111  and  _112
REMARK   49  A    between atoms: _121  and  _123
REMARK   50  A    between atoms: _123  and  _124
REMARK   51  A    between atoms: _123  and  _126
REMARK   52  A    between atoms: _126  and  _127
REMARK   53  A    between atoms: _132  and  _134
REMARK   54  A    between atoms: _134  and  _135
REMARK   55  A    between atoms: _134  and  _137
REMARK   56  A    between atoms: _137  and  _138
REMARK   57  A    between atoms: _138  and  _139
REMARK   58  A    between atoms: _142  and  _144
REMARK   59  A    between atoms: _144  and  _145
REMARK   60  A    between atoms: _144  and  _147
REMARK   61  A    between atoms: _147  and  _148
REMARK   62  A    between atoms: _149  and  MG_450
REMARK   63  A    between atoms: _153  and  _155
REMARK   64  A    between atoms: _155  and  _156
REMARK   65  A    between atoms: _155  and  _158
REMARK   66  A    between atoms: _158  and  _159
REMARK   67  A    between atoms: _159  and  _160
REMARK   68  A    between atoms: _162  and  _164
REMARK   69  A    between atoms: _164  and  _165
REMARK   70  A    between atoms: _164  and  _167
REMARK   71  A    between atoms: _167  and  _168
REMARK   72  A    between atoms: _173  and  _175
REMARK   73  A    between atoms: _175  and  _176
REMARK   74  A    between atoms: _175  and  _178
REMARK   75  A    between atoms: _178  and  _179
REMARK   76  A    between atoms: _179  and  _180
REMARK   77  A    between atoms: _183  and  _185
REMARK   78  A    between atoms: _185  and  _186
REMARK   79  A    between atoms: _185  and  _188
REMARK   80  A    between atoms: _188  and  _189
REMARK   81  A    between atoms: _189  and  _190
REMARK   82  A    between atoms: _193  and  _195
REMARK   83  A    between atoms: _195  and  _196
REMARK   84  A    between atoms: _195  and  _198
REMARK   85  A    between atoms: _198  and  _199
REMARK   86  A    between atoms: _199  and  _200
REMARK   87  A    between atoms: _202  and  _204
REMARK   88  A    between atoms: _204  and  _205
REMARK   89  A    between atoms: _204  and  _207
REMARK   90  A    between atoms: _207  and  _208
REMARK   91  A    between atoms: _213  and  _214
REMARK   92  A    between atoms: _216  and  _218
REMARK   93  A    between atoms: _218  and  _219
REMARK   94  A    between atoms: _218  and  _221
REMARK   95  A    between atoms: _221  and  _222
REMARK   96  A    between atoms: _222  and  _223
REMARK   97  A    between atoms: _223  and  _224
REMARK   98  A    between atoms: _224  and  _225
REMARK   99  A    between atoms: _229  and  _231
REMARK  100  A    between atoms: _231  and  _232
REMARK  101  A    between atoms: _231  and  _234
REMARK  102  A    between atoms: _236  and  _238
REMARK  103  A    between atoms: _238  and  _239
REMARK  104  A    between atoms: _238  and  _241
REMARK  105  A    between atoms: _241  and  _242
REMARK  106  A    between atoms: _242  and  _243
REMARK  107  A    between atoms: _246  and  _248
REMARK  108  A    between atoms: _248  and  _249
REMARK  109  A    between atoms: _248  and  _251
REMARK  110  A    between atoms: _251  and  _252
REMARK  111  A    between atoms: _257  and  _259
REMARK  112  A    between atoms: _259  and  _260
REMARK  113  A    between atoms: _263  and  _265
REMARK  114  A    between atoms: _265  and  _266
REMARK  115  A    between atoms: _265  and  _268
REMARK  116  A    between atoms: _268  and  _269
REMARK  117  A    between atoms: _269  and  _270
REMARK  118  A    between atoms: _272  and  _274
REMARK  119  A    between atoms: _274  and  _275
REMARK  120  A    between atoms: _274  and  _277
REMARK  121  A    between atoms: _277  and  _278
REMARK  122  A    between atoms: _288  and  _290
REMARK  123  A    between atoms: _290  and  _291
REMARK  124  A    between atoms: _290  and  _293
REMARK  125  A    between atoms: _293  and  _294
REMARK  126  A    between atoms: _297  and  _299
REMARK  127  A    between atoms: _299  and  _300
REMARK  128  A    between atoms: _299  and  _302
REMARK  129  A    between atoms: _302  and  _303
REMARK  130  A    between atoms: _303  and  _304
REMARK  131  A    between atoms: _309  and  _311
REMARK  132  A    between atoms: _311  and  _312
REMARK  133  A    between atoms: _311  and  _314
REMARK  134  A    between atoms: _314  and  _315
REMARK  135  A    between atoms: _318  and  _320
REMARK  136  A    between atoms: _320  and  _321
REMARK  137  A    between atoms: _320  and  _323
REMARK  138  A    between atoms: _323  and  _324
REMARK  139  A    between atoms: _324  and  _325
REMARK  140  A    between atoms: _330  and  _332
REMARK  141  A    between atoms: _332  and  _333
REMARK  142  A    between atoms: _332  and  _335
REMARK  143  A    between atoms: _333  and  _334
REMARK  144  A    between atoms: _333  and  _342
REMARK  145  A    between atoms: _335  and  _336
REMARK  146  A    between atoms: _342  and  _344
REMARK  147  A    between atoms: _344  and  _345
REMARK  148  A    between atoms: _344  and  _347
REMARK  149  A    between atoms: _349  and  _351
REMARK  150  A    between atoms: _351  and  _352
REMARK  151  A    between atoms: _351  and  _354
REMARK  152  A    between atoms: _354  and  _355
REMARK  153  A    between atoms: _355  and  _356
REMARK  154  A    between atoms: _358  and  _360
REMARK  155  A    between atoms: _360  and  _361
REMARK  156  A    between atoms: _360  and  _363
REMARK  157  A    between atoms: _363  and  _364
REMARK  158  A    between atoms: _369  and  _371
REMARK  159  A    between atoms: _371  and  _372
REMARK  160  A    between atoms: _374  and  _376
REMARK  161  A    between atoms: _376  and  _377
REMARK  162  A    between atoms: _376  and  _379
REMARK  163  A    between atoms: _382  and  _384
REMARK  164  A    between atoms: _384  and  _385
REMARK  165  A    between atoms: _384  and  _387
REMARK  166  A    between atoms: _387  and  _388
REMARK  167  A    between atoms: _391  and  _393
REMARK  168  A    between atoms: _393  and  _394
REMARK  169  A    between atoms: _393  and  _396
REMARK  170  A    between atoms: _396  and  _397
REMARK  171  A    between atoms: _399  and  _401
REMARK  172  A    between atoms: _401  and  _402
REMARK  173  A    between atoms: _401  and  _404
REMARK  174  A    between atoms: _404  and  _405
REMARK  175  A    between atoms: _415  and  _417
REMARK  176  A    between atoms: _417  and  _418
REMARK  177  A    between atoms: _417  and  _420
REMARK  178  A    between atoms: _420  and  _421
REMARK  179  A    between atoms: _423  and  _425
REMARK  180  A    between atoms: _425  and  _426
REMARK  181  A    between atoms: _425  and  _428
REMARK  182  A    between atoms: _428  and  _429
REMARK  183  A    between atoms: _429  and  _430
REMARK  184  A    between atoms: _433  and  _435
REMARK  185  A    between atoms: _435  and  _436
REMARK  186  A    between atoms: _435  and  _438
REMARK  187  A    between atoms: _438  and  _439
REMARK  188  A    between atoms: _439  and  _440
REMARK  189  A    between atoms: _440  and  _441
REMARK                            x       y       z     vdW  Elec       q    Type
REMARK                         _______ _______ _______ _____ _____    ______ ____
ROOT
ATOM      1  O   HOH     1      -9.249 -29.346 -25.610  0.00  0.00    +0.000 OA
ENDROOT
TORSDOF 0
REMARK  Name = ../refined-set-2016/3t0b/3t0b_pocket.pdb
REMARK  189 active torsions:
REMARK  status: ('A' for Active; 'I' for Inactive)
REMARK    1  A    between atoms: _1  and  _3
REMARK    2  A    between atoms: _3  and  _4
REMARK    3  A    between atoms: _3  and  _6
REMARK    4  A    between atoms: _6  and  _7
REMARK    5  A    between atoms: _12  and  _13
REMARK    6  A    between atoms: _15  and  _17
REMARK    7  A    between atoms: _17  and  _18
REMARK    8  A    between atoms: _17  and  _20
REMARK    9  A    between atoms: _20  and  _21
REMARK   10  A    between atoms: _24  and  _26
REMARK   11  A    between atoms: _26  and  _27
REMARK   12  A    between atoms: _26  and  _29
REMARK   13  A    between atoms: _29  and  _30
REMARK   14  A    between atoms: _35  and  _37
REMARK   15  A    between atoms: _37  and  _38
REMARK   16  A    between atoms: _37  and  _40
REMARK   17  A    between atoms: _43  and  _45
REMARK   18  A    between atoms: _45  and  _46
REMARK   19  A    between atoms: _45  and  _48
REMARK   20  A    between atoms: _48  and  _49
REMARK   21  A    between atoms: _52  and  _54
REMARK   22  A    between atoms: _54  and  _55
REMARK   23  A    between atoms: _54  and  _57
REMARK   24  A    between atoms: _57  and  _58
REMARK   25  A    between atoms: _58  and  _59
REMARK   26  A    between atoms: _64  and  _66
REMARK   27  A    between atoms: _66  and  _67
REMARK   28  A    between atoms: _66  and  _69
REMARK   29  A    between atoms: _69  and  _70
REMARK   30  A    between atoms: _73  and  _75
REMARK   31  A    between atoms: _75  and  _76
REMARK   32  A    between atoms: _75  and  _78
REMARK   33  A    between atoms: _78  and  _79
REMARK   34  A    between atoms: _79  and  _80
REMARK   35  A    between atoms: _82  and  _84
REMARK   36  A    between atoms: _84  and  _85
REMARK   37  A    between atoms: _84  and  _87
REMARK   38  A    between atoms: _87  and  _88
REMARK   39  A    between atoms: _93  and  _95
REMARK   40  A    between atoms: _95  and  _96
REMARK   41  A    between atoms: _95  and  _98
REMARK   42  A    between atoms: _98  and  _99
REMARK   43  A    between atoms: _104  and  _106
REMARK   44  A    between atoms: _106  and  _107
REMARK   45  A    between atoms: _106  and  _109
REMARK   46  A    between atoms: _109  and  _110
REMARK   47  A    between atoms: _110  and  _111
REMARK   48  A    between atoms: _111  and  _112
REMARK   49  A    between atoms: _121  and  _123
REMARK   50  A    between atoms: _123  and  _124
REMARK   51  A    between atoms: _123  and  _126
REMARK   52  A    between atoms: _126  and  _127
REMARK   53  A    between atoms: _132  and  _134
REMARK   54  A    between atoms: _134  and  _135
REMARK   55  A    between atoms: _134  and  _137
REMARK   56  A    between atoms: _137  and  _138
REMARK   57  A    between atoms: _138  and  _139
REMARK   58  A    between atoms: _142  and  _144
REMARK   59  A    between atoms: _144  and  _145
REMARK   60  A    between atoms: _144  and  _147
REMARK   61  A    between atoms: _147  and  _148
REMARK   62  A    between atoms: _149  and  MG_450
REMARK   63  A    between atoms: _153  and  _155
REMARK   64  A    between atoms: _155  and  _156
REMARK   65  A    between atoms: _155  and  _158
REMARK   66  A    between atoms: _158  and  _159
REMARK   67  A    between atoms: _159  and  _160
REMARK   68  A    between atoms: _162  and  _164
REMARK   69  A    between atoms: _164  and  _165
REMARK   70  A    between atoms: _164  and  _167
REMARK   71  A    between atoms: _167  and  _168
REMARK   72  A    between atoms: _173  and  _175
REMARK   73  A    between atoms: _175  and  _176
REMARK   74  A    between atoms: _175  and  _178
REMARK   75  A    between atoms: _178  and  _179
REMARK   76  A    between atoms: _179  and  _180
REMARK   77  A    between atoms: _183  and  _185
REMARK   78  A    between atoms: _185  and  _186
REMARK   79  A    between atoms: _185  and  _188
REMARK   80  A    between atoms: _188  and  _189
REMARK   81  A    between atoms: _189  and  _190
REMARK   82  A    between atoms: _193  and  _195
REMARK   83  A    between atoms: _195  and  _196
REMARK   84  A    between atoms: _195  and  _198
REMARK   85  A    between atoms: _198  and  _199
REMARK   86  A    between atoms: _199  and  _200
REMARK   87  A    between atoms: _202  and  _204
REMARK   88  A    between atoms: _204  and  _205
REMARK   89  A    between atoms: _204  and  _207
REMARK   90  A    between atoms: _207  and  _208
REMARK   91  A    between atoms: _213  and  _214
REMARK   92  A    between atoms: _216  and  _218
REMARK   93  A    between atoms: _218  and  _219
REMARK   94  A    between atoms: _218  and  _221
REMARK   95  A    between atoms: _221  and  _222
REMARK   96  A    between atoms: _222  and  _223
REMARK   97  A    between atoms: _223  and  _224
REMARK   98  A    between atoms: _224  and  _225
REMARK   99  A    between atoms: _229  and  _231
REMARK  100  A    between atoms: _231  and  _232
REMARK  101  A    between atoms: _231  and  _234
REMARK  102  A    between atoms: _236  and  _238
REMARK  103  A    between atoms: _238  and  _239
REMARK  104  A    between atoms: _238  and  _241
REMARK  105  A    between atoms: _241  and  _242
REMARK  106  A    between atoms: _242  and  _243
REMARK  107  A    between atoms: _246  and  _248
REMARK  108  A    between atoms: _248  and  _249
REMARK  109  A    between atoms: _248  and  _251
REMARK  110  A    between atoms: _251  and  _252
REMARK  111  A    between atoms: _257  and  _259
REMARK  112  A    between atoms: _259  and  _260
REMARK  113  A    between atoms: _263  and  _265
REMARK  114  A    between atoms: _265  and  _266
REMARK  115  A    between atoms: _265  and  _268
REMARK  116  A    between atoms: _268  and  _269
REMARK  117  A    between atoms: _269  and  _270
REMARK  118  A    between atoms: _272  and  _274
REMARK  119  A    between atoms: _274  and  _275
REMARK  120  A    between atoms: _274  and  _277
REMARK  121  A    between atoms: _277  and  _278
REMARK  122  A    between atoms: _288  and  _290
REMARK  123  A    between atoms: _290  and  _291
REMARK  124  A    between atoms: _290  and  _293
REMARK  125  A    between atoms: _293  and  _294
REMARK  126  A    between atoms: _297  and  _299
REMARK  127  A    between atoms: _299  and  _300
REMARK  128  A    between atoms: _299  and  _302
REMARK  129  A    between atoms: _302  and  _303
REMARK  130  A    between atoms: _303  and  _304
REMARK  131  A    between atoms: _309  and  _311
REMARK  132  A    between atoms: _311  and  _312
REMARK  133  A    between atoms: _311  and  _314
REMARK  134  A    between atoms: _314  and  _315
REMARK  135  A    between atoms: _318  and  _320
REMARK  136  A    between atoms: _320  and  _321
REMARK  137  A    between atoms: _320  and  _323
REMARK  138  A    between atoms: _323  and  _324
REMARK  139  A    between atoms: _324  and  _325
REMARK  140  A    between atoms: _330  and  _332
REMARK  141  A    between atoms: _332  and  _333
REMARK  142  A    between atoms: _332  and  _335
REMARK  143  A    between atoms: _333  and  _334
REMARK  144  A    between atoms: _333  and  _342
REMARK  145  A    between atoms: _335  and  _336
REMARK  146  A    between atoms: _342  and  _344
REMARK  147  A    between atoms: _344  and  _345
REMARK  148  A    between atoms: _344  and  _347
REMARK  149  A    between atoms: _349  and  _351
REMARK  150  A    between atoms: _351  and  _352
REMARK  151  A    between atoms: _351  and  _354
REMARK  152  A    between atoms: _354  and  _355
REMARK  153  A    between atoms: _355  and  _356
REMARK  154  A    between atoms: _358  and  _360
REMARK  155  A    between atoms: _360  and  _361
REMARK  156  A    between atoms: _360  and  _363
REMARK  157  A    between atoms: _363  and  _364
REMARK  158  A    between atoms: _369  and  _371
REMARK  159  A    between atoms: _371  and  _372
REMARK  160  A    between atoms: _374  and  _376
REMARK  161  A    between atoms: _376  and  _377
REMARK  162  A    between atoms: _376  and  _379
REMARK  163  A    between atoms: _382  and  _384
REMARK  164  A    between atoms: _384  and  _385
REMARK  165  A    between atoms: _384  and  _387
REMARK  166  A    between atoms: _387  and  _388
REMARK  167  A    between atoms: _391  and  _393
REMARK  168  A    between atoms: _393  and  _394
REMARK  169  A    between atoms: _393  and  _396
REMARK  170  A    between atoms: _396  and  _397
REMARK  171  A    between atoms: _399  and  _401
REMARK  172  A    between atoms: _401  and  _402
REMARK  173  A    between atoms: _401  and  _404
REMARK  174  A    between atoms: _404  and  _405
REMARK  175  A    between atoms: _415  and  _417
REMARK  176  A    between atoms: _417  and  _418
REMARK  177  A    between atoms: _417  and  _420
REMARK  178  A    between atoms: _420  and  _421
REMARK  179  A    between atoms: _423  and  _425
REMARK  180  A    between atoms: _425  and  _426
REMARK  181  A    between atoms: _425  and  _428
REMARK  182  A    between atoms: _428  and  _429
REMARK  183  A    between atoms: _429  and  _430
REMARK  184  A    between atoms: _433  and  _435
REMARK  185  A    between atoms: _435  and  _436
REMARK  186  A    between atoms: _435  and  _438
REMARK  187  A    between atoms: _438  and  _439
REMARK  188  A    between atoms: _439  and  _440
REMARK  189  A    between atoms: _440  and  _441
REMARK                            x       y       z     vdW  Elec       q    Type
REMARK                         _______ _______ _______ _____ _____    ______ ____
ROOT
ATOM      1  O   HOH     1      -9.835 -31.171 -23.629  0.00  0.00    +0.000 OA
ENDROOT
TORSDOF 0
REMARK  Name = ../refined-set-2016/3t0b/3t0b_pocket.pdb
REMARK  189 active torsions:
REMARK  status: ('A' for Active; 'I' for Inactive)
REMARK    1  A    between atoms: _1  and  _3
REMARK    2  A    between atoms: _3  and  _4
REMARK    3  A    between atoms: _3  and  _6
REMARK    4  A    between atoms: _6  and  _7
REMARK    5  A    between atoms: _12  and  _13
REMARK    6  A    between atoms: _15  and  _17
REMARK    7  A    between atoms: _17  and  _18
REMARK    8  A    between atoms: _17  and  _20
REMARK    9  A    between atoms: _20  and  _21
REMARK   10  A    between atoms: _24  and  _26
REMARK   11  A    between atoms: _26  and  _27
REMARK   12  A    between atoms: _26  and  _29
REMARK   13  A    between atoms: _29  and  _30
REMARK   14  A    between atoms: _35  and  _37
REMARK   15  A    between atoms: _37  and  _38
REMARK   16  A    between atoms: _37  and  _40
REMARK   17  A    between atoms: _43  and  _45
REMARK   18  A    between atoms: _45  and  _46
REMARK   19  A    between atoms: _45  and  _48
REMARK   20  A    between atoms: _48  and  _49
REMARK   21  A    between atoms: _52  and  _54
REMARK   22  A    between atoms: _54  and  _55
REMARK   23  A    between atoms: _54  and  _57
REMARK   24  A    between atoms: _57  and  _58
REMARK   25  A    between atoms: _58  and  _59
REMARK   26  A    between atoms: _64  and  _66
REMARK   27  A    between atoms: _66  and  _67
REMARK   28  A    between atoms: _66  and  _69
REMARK   29  A    between atoms: _69  and  _70
REMARK   30  A    between atoms: _73  and  _75
REMARK   31  A    between atoms: _75  and  _76
REMARK   32  A    between atoms: _75  and  _78
REMARK   33  A    between atoms: _78  and  _79
REMARK   34  A    between atoms: _79  and  _80
REMARK   35  A    between atoms: _82  and  _84
REMARK   36  A    between atoms: _84  and  _85
REMARK   37  A    between atoms: _84  and  _87
REMARK   38  A    between atoms: _87  and  _88
REMARK   39  A    between atoms: _93  and  _95
REMARK   40  A    between atoms: _95  and  _96
REMARK   41  A    between atoms: _95  and  _98
REMARK   42  A    between atoms: _98  and  _99
REMARK   43  A    between atoms: _104  and  _106
REMARK   44  A    between atoms: _106  and  _107
REMARK   45  A    between atoms: _106  and  _109
REMARK   46  A    between atoms: _109  and  _110
REMARK   47  A    between atoms: _110  and  _111
REMARK   48  A    between atoms: _111  and  _112
REMARK   49  A    between atoms: _121  and  _123
REMARK   50  A    between atoms: _123  and  _124
REMARK   51  A    between atoms: _123  and  _126
REMARK   52  A    between atoms: _126  and  _127
REMARK   53  A    between atoms: _132  and  _134
REMARK   54  A    between atoms: _134  and  _135
REMARK   55  A    between atoms: _134  and  _137
REMARK   56  A    between atoms: _137  and  _138
REMARK   57  A    between atoms: _138  and  _139
REMARK   58  A    between atoms: _142  and  _144
REMARK   59  A    between atoms: _144  and  _145
REMARK   60  A    between atoms: _144  and  _147
REMARK   61  A    between atoms: _147  and  _148
REMARK   62  A    between atoms: _149  and  MG_450
REMARK   63  A    between atoms: _153  and  _155
REMARK   64  A    between atoms: _155  and  _156
REMARK   65  A    between atoms: _155  and  _158
REMARK   66  A    between atoms: _158  and  _159
REMARK   67  A    between atoms: _159  and  _160
REMARK   68  A    between atoms: _162  and  _164
REMARK   69  A    between atoms: _164  and  _165
REMARK   70  A    between atoms: _164  and  _167
REMARK   71  A    between atoms: _167  and  _168
REMARK   72  A    between atoms: _173  and  _175
REMARK   73  A    between atoms: _175  and  _176
REMARK   74  A    between atoms: _175  and  _178
REMARK   75  A    between atoms: _178  and  _179
REMARK   76  A    between atoms: _179  and  _180
REMARK   77  A    between atoms: _183  and  _185
REMARK   78  A    between atoms: _185  and  _186
REMARK   79  A    between atoms: _185  and  _188
REMARK   80  A    between atoms: _188  and  _189
REMARK   81  A    between atoms: _189  and  _190
REMARK   82  A    between atoms: _193  and  _195
REMARK   83  A    between atoms: _195  and  _196
REMARK   84  A    between atoms: _195  and  _198
REMARK   85  A    between atoms: _198  and  _199
REMARK   86  A    between atoms: _199  and  _200
REMARK   87  A    between atoms: _202  and  _204
REMARK   88  A    between atoms: _204  and  _205
REMARK   89  A    between atoms: _204  and  _207
REMARK   90  A    between atoms: _207  and  _208
REMARK   91  A    between atoms: _213  and  _214
REMARK   92  A    between atoms: _216  and  _218
REMARK   93  A    between atoms: _218  and  _219
REMARK   94  A    between atoms: _218  and  _221
REMARK   95  A    between atoms: _221  and  _222
REMARK   96  A    between atoms: _222  and  _223
REMARK   97  A    between atoms: _223  and  _224
REMARK   98  A    between atoms: _224  and  _225
REMARK   99  A    between atoms: _229  and  _231
REMARK  100  A    between atoms: _231  and  _232
REMARK  101  A    between atoms: _231  and  _234
REMARK  102  A    between atoms: _236  and  _238
REMARK  103  A    between atoms: _238  and  _239
REMARK  104  A    between atoms: _238  and  _241
REMARK  105  A    between atoms: _241  and  _242
REMARK  106  A    between atoms: _242  and  _243
REMARK  107  A    between atoms: _246  and  _248
REMARK  108  A    between atoms: _248  and  _249
REMARK  109  A    between atoms: _248  and  _251
REMARK  110  A    between atoms: _251  and  _252
REMARK  111  A    between atoms: _257  and  _259
REMARK  112  A    between atoms: _259  and  _260
REMARK  113  A    between atoms: _263  and  _265
REMARK  114  A    between atoms: _265  and  _266
REMARK  115  A    between atoms: _265  and  _268
REMARK  116  A    between atoms: _268  and  _269
REMARK  117  A    between atoms: _269  and  _270
REMARK  118  A    between atoms: _272  and  _274
REMARK  119  A    between atoms: _274  and  _275
REMARK  120  A    between atoms: _274  and  _277
REMARK  121  A    between atoms: _277  and  _278
REMARK  122  A    between atoms: _288  and  _290
REMARK  123  A    between atoms: _290  and  _291
REMARK  124  A    between atoms: _290  and  _293
REMARK  125  A    between atoms: _293  and  _294
REMARK  126  A    between atoms: _297  and  _299
REMARK  127  A    between atoms: _299  and  _300
REMARK  128  A    between atoms: _299  and  _302
REMARK  129  A    between atoms: _302  and  _303
REMARK  130  A    between atoms: _303  and  _304
REMARK  131  A    between atoms: _309  and  _311
REMARK  132  A    between atoms: _311  and  _312
REMARK  133  A    between atoms: _311  and  _314
REMARK  134  A    between atoms: _314  and  _315
REMARK  135  A    between atoms: _318  and  _320
REMARK  136  A    between atoms: _320  and  _321
REMARK  137  A    between atoms: _320  and  _323
REMARK  138  A    between atoms: _323  and  _324
REMARK  139  A    between atoms: _324  and  _325
REMARK  140  A    between atoms: _330  and  _332
REMARK  141  A    between atoms: _332  and  _333
REMARK  142  A    between atoms: _332  and  _335
REMARK  143  A    between atoms: _333  and  _334
REMARK  144  A    between atoms: _333  and  _342
REMARK  145  A    between atoms: _335  and  _336
REMARK  146  A    between atoms: _342  and  _344
REMARK  147  A    between atoms: _344  and  _345
REMARK  148  A    between atoms: _344  and  _347
REMARK  149  A    between atoms: _349  and  _351
REMARK  150  A    between atoms: _351  and  _352
REMARK  151  A    between atoms: _351  and  _354
REMARK  152  A    between atoms: _354  and  _355
REMARK  153  A    between atoms: _355  and  _356
REMARK  154  A    between atoms: _358  and  _360
REMARK  155  A    between atoms: _360  and  _361
REMARK  156  A    between atoms: _360  and  _363
REMARK  157  A    between atoms: _363  and  _364
REMARK  158  A    between atoms: _369  and  _371
REMARK  159  A    between atoms: _371  and  _372
REMARK  160  A    between atoms: _374  and  _376
REMARK  161  A    between atoms: _376  and  _377
REMARK  162  A    between atoms: _376  and  _379
REMARK  163  A    between atoms: _382  and  _384
REMARK  164  A    between atoms: _384  and  _385
REMARK  165  A    between atoms: _384  and  _387
REMARK  166  A    between atoms: _387  and  _388
REMARK  167  A    between atoms: _391  and  _393
REMARK  168  A    between atoms: _393  and  _394
REMARK  169  A    between atoms: _393  and  _396
REMARK  170  A    between atoms: _396  and  _397
REMARK  171  A    between atoms: _399  and  _401
REMARK  172  A    between atoms: _401  and  _402
REMARK  173  A    between atoms: _401  and  _404
REMARK  174  A    between atoms: _404  and  _405
REMARK  175  A    between atoms: _415  and  _417
REMARK  176  A    between atoms: _417  and  _418
REMARK  177  A    between atoms: _417  and  _420
REMARK  178  A    between atoms: _420  and  _421
REMARK  179  A    between atoms: _423  and  _425
REMARK  180  A    between atoms: _425  and  _426
REMARK  181  A    between atoms: _425  and  _428
REMARK  182  A    between atoms: _428  and  _429
REMARK  183  A    between atoms: _429  and  _430
REMARK  184  A    between atoms: _433  and  _435
REMARK  185  A    between atoms: _435  and  _436
REMARK  186  A    between atoms: _435  and  _438
REMARK  187  A    between atoms: _438  and  _439
REMARK  188  A    between atoms: _439  and  _440
REMARK  189  A    between atoms: _440  and  _441
REMARK                            x       y       z     vdW  Elec       q    Type
REMARK                         _______ _______ _______ _____ _____    ______ ____
ROOT
ATOM      1  O   HOH     1      -7.692 -31.721 -26.346  0.00  0.00    +0.000 OA
ENDROOT
TORSDOF 0
REMARK  Name = ../refined-set-2016/3t0b/3t0b_pocket.pdb
REMARK  189 active torsions:
REMARK  status: ('A' for Active; 'I' for Inactive)
REMARK    1  A    between atoms: _1  and  _3
REMARK    2  A    between atoms: _3  and  _4
REMARK    3  A    between atoms: _3  and  _6
REMARK    4  A    between atoms: _6  and  _7
REMARK    5  A    between atoms: _12  and  _13
REMARK    6  A    between atoms: _15  and  _17
REMARK    7  A    between atoms: _17  and  _18
REMARK    8  A    between atoms: _17  and  _20
REMARK    9  A    between atoms: _20  and  _21
REMARK   10  A    between atoms: _24  and  _26
REMARK   11  A    between atoms: _26  and  _27
REMARK   12  A    between atoms: _26  and  _29
REMARK   13  A    between atoms: _29  and  _30
REMARK   14  A    between atoms: _35  and  _37
REMARK   15  A    between atoms: _37  and  _38
REMARK   16  A    between atoms: _37  and  _40
REMARK   17  A    between atoms: _43  and  _45
REMARK   18  A    between atoms: _45  and  _46
REMARK   19  A    between atoms: _45  and  _48
REMARK   20  A    between atoms: _48  and  _49
REMARK   21  A    between atoms: _52  and  _54
REMARK   22  A    between atoms: _54  and  _55
REMARK   23  A    between atoms: _54  and  _57
REMARK   24  A    between atoms: _57  and  _58
REMARK   25  A    between atoms: _58  and  _59
REMARK   26  A    between atoms: _64  and  _66
REMARK   27  A    between atoms: _66  and  _67
REMARK   28  A    between atoms: _66  and  _69
REMARK   29  A    between atoms: _69  and  _70
REMARK   30  A    between atoms: _73  and  _75
REMARK   31  A    between atoms: _75  and  _76
REMARK   32  A    between atoms: _75  and  _78
REMARK   33  A    between atoms: _78  and  _79
REMARK   34  A    between atoms: _79  and  _80
REMARK   35  A    between atoms: _82  and  _84
REMARK   36  A    between atoms: _84  and  _85
REMARK   37  A    between atoms: _84  and  _87
REMARK   38  A    between atoms: _87  and  _88
REMARK   39  A    between atoms: _93  and  _95
REMARK   40  A    between atoms: _95  and  _96
REMARK   41  A    between atoms: _95  and  _98
REMARK   42  A    between atoms: _98  and  _99
REMARK   43  A    between atoms: _104  and  _106
REMARK   44  A    between atoms: _106  and  _107
REMARK   45  A    between atoms: _106  and  _109
REMARK   46  A    between atoms: _109  and  _110
REMARK   47  A    between atoms: _110  and  _111
REMARK   48  A    between atoms: _111  and  _112
REMARK   49  A    between atoms: _121  and  _123
REMARK   50  A    between atoms: _123  and  _124
REMARK   51  A    between atoms: _123  and  _126
REMARK   52  A    between atoms: _126  and  _127
REMARK   53  A    between atoms: _132  and  _134
REMARK   54  A    between atoms: _134  and  _135
REMARK   55  A    between atoms: _134  and  _137
REMARK   56  A    between atoms: _137  and  _138
REMARK   57  A    between atoms: _138  and  _139
REMARK   58  A    between atoms: _142  and  _144
REMARK   59  A    between atoms: _144  and  _145
REMARK   60  A    between atoms: _144  and  _147
REMARK   61  A    between atoms: _147  and  _148
REMARK   62  A    between atoms: _149  and  MG_450
REMARK   63  A    between atoms: _153  and  _155
REMARK   64  A    between atoms: _155  and  _156
REMARK   65  A    between atoms: _155  and  _158
REMARK   66  A    between atoms: _158  and  _159
REMARK   67  A    between atoms: _159  and  _160
REMARK   68  A    between atoms: _162  and  _164
REMARK   69  A    between atoms: _164  and  _165
REMARK   70  A    between atoms: _164  and  _167
REMARK   71  A    between atoms: _167  and  _168
REMARK   72  A    between atoms: _173  and  _175
REMARK   73  A    between atoms: _175  and  _176
REMARK   74  A    between atoms: _175  and  _178
REMARK   75  A    between atoms: _178  and  _179
REMARK   76  A    between atoms: _179  and  _180
REMARK   77  A    between atoms: _183  and  _185
REMARK   78  A    between atoms: _185  and  _186
REMARK   79  A    between atoms: _185  and  _188
REMARK   80  A    between atoms: _188  and  _189
REMARK   81  A    between atoms: _189  and  _190
REMARK   82  A    between atoms: _193  and  _195
REMARK   83  A    between atoms: _195  and  _196
REMARK   84  A    between atoms: _195  and  _198
REMARK   85  A    between atoms: _198  and  _199
REMARK   86  A    between atoms: _199  and  _200
REMARK   87  A    between atoms: _202  and  _204
REMARK   88  A    between atoms: _204  and  _205
REMARK   89  A    between atoms: _204  and  _207
REMARK   90  A    between atoms: _207  and  _208
REMARK   91  A    between atoms: _213  and  _214
REMARK   92  A    between atoms: _216  and  _218
REMARK   93  A    between atoms: _218  and  _219
REMARK   94  A    between atoms: _218  and  _221
REMARK   95  A    between atoms: _221  and  _222
REMARK   96  A    between atoms: _222  and  _223
REMARK   97  A    between atoms: _223  and  _224
REMARK   98  A    between atoms: _224  and  _225
REMARK   99  A    between atoms: _229  and  _231
REMARK  100  A    between atoms: _231  and  _232
REMARK  101  A    between atoms: _231  and  _234
REMARK  102  A    between atoms: _236  and  _238
REMARK  103  A    between atoms: _238  and  _239
REMARK  104  A    between atoms: _238  and  _241
REMARK  105  A    between atoms: _241  and  _242
REMARK  106  A    between atoms: _242  and  _243
REMARK  107  A    between atoms: _246  and  _248
REMARK  108  A    between atoms: _248  and  _249
REMARK  109  A    between atoms: _248  and  _251
REMARK  110  A    between atoms: _251  and  _252
REMARK  111  A    between atoms: _257  and  _259
REMARK  112  A    between atoms: _259  and  _260
REMARK  113  A    between atoms: _263  and  _265
REMARK  114  A    between atoms: _265  and  _266
REMARK  115  A    between atoms: _265  and  _268
REMARK  116  A    between atoms: _268  and  _269
REMARK  117  A    between atoms: _269  and  _270
REMARK  118  A    between atoms: _272  and  _274
REMARK  119  A    between atoms: _274  and  _275
REMARK  120  A    between atoms: _274  and  _277
REMARK  121  A    between atoms: _277  and  _278
REMARK  122  A    between atoms: _288  and  _290
REMARK  123  A    between atoms: _290  and  _291
REMARK  124  A    between atoms: _290  and  _293
REMARK  125  A    between atoms: _293  and  _294
REMARK  126  A    between atoms: _297  and  _299
REMARK  127  A    between atoms: _299  and  _300
REMARK  128  A    between atoms: _299  and  _302
REMARK  129  A    between atoms: _302  and  _303
REMARK  130  A    between atoms: _303  and  _304
REMARK  131  A    between atoms: _309  and  _311
REMARK  132  A    between atoms: _311  and  _312
REMARK  133  A    between atoms: _311  and  _314
REMARK  134  A    between atoms: _314  and  _315
REMARK  135  A    between atoms: _318  and  _320
REMARK  136  A    between atoms: _320  and  _321
REMARK  137  A    between atoms: _320  and  _323
REMARK  138  A    between atoms: _323  and  _324
REMARK  139  A    between atoms: _324  and  _325
REMARK  140  A    between atoms: _330  and  _332
REMARK  141  A    between atoms: _332  and  _333
REMARK  142  A    between atoms: _332  and  _335
REMARK  143  A    between atoms: _333  and  _334
REMARK  144  A    between atoms: _333  and  _342
REMARK  145  A    between atoms: _335  and  _336
REMARK  146  A    between atoms: _342  and  _344
REMARK  147  A    between atoms: _344  and  _345
REMARK  148  A    between atoms: _344  and  _347
REMARK  149  A    between atoms: _349  and  _351
REMARK  150  A    between atoms: _351  and  _352
REMARK  151  A    between atoms: _351  and  _354
REMARK  152  A    between atoms: _354  and  _355
REMARK  153  A    between atoms: _355  and  _356
REMARK  154  A    between atoms: _358  and  _360
REMARK  155  A    between atoms: _360  and  _361
REMARK  156  A    between atoms: _360  and  _363
REMARK  157  A    between atoms: _363  and  _364
REMARK  158  A    between atoms: _369  and  _371
REMARK  159  A    between atoms: _371  and  _372
REMARK  160  A    between atoms: _374  and  _376
REMARK  161  A    between atoms: _376  and  _377
REMARK  162  A    between atoms: _376  and  _379
REMARK  163  A    between atoms: _382  and  _384
REMARK  164  A    between atoms: _384  and  _385
REMARK  165  A    between atoms: _384  and  _387
REMARK  166  A    between atoms: _387  and  _388
REMARK  167  A    between atoms: _391  and  _393
REMARK  168  A    between atoms: _393  and  _394
REMARK  169  A    between atoms: _393  and  _396
REMARK  170  A    between atoms: _396  and  _397
REMARK  171  A    between atoms: _399  and  _401
REMARK  172  A    between atoms: _401  and  _402
REMARK  173  A    between atoms: _401  and  _404
REMARK  174  A    between atoms: _404  and  _405
REMARK  175  A    between atoms: _415  and  _417
REMARK  176  A    between atoms: _417  and  _418
REMARK  177  A    between atoms: _417  and  _420
REMARK  178  A    between atoms: _420  and  _421
REMARK  179  A    between atoms: _423  and  _425
REMARK  180  A    between atoms: _425  and  _426
REMARK  181  A    between atoms: _425  and  _428
REMARK  182  A    between atoms: _428  and  _429
REMARK  183  A    between atoms: _429  and  _430
REMARK  184  A    between atoms: _433  and  _435
REMARK  185  A    between atoms: _435  and  _436
REMARK  186  A    between atoms: _435  and  _438
REMARK  187  A    between atoms: _438  and  _439
REMARK  188  A    between atoms: _439  and  _440
REMARK  189  A    between atoms: _440  and  _441
REMARK                            x       y       z     vdW  Elec       q    Type
REMARK                         _______ _______ _______ _____ _____    ______ ____
ROOT
ATOM      1  O   HOH     1      -7.190 -30.980 -34.334  0.00  0.00    +0.000 OA
ENDROOT
TORSDOF 0
REMARK  Name = ../refined-set-2016/3t0b/3t0b_pocket.pdb
REMARK  189 active torsions:
REMARK  status: ('A' for Active; 'I' for Inactive)
REMARK    1  A    between atoms: _1  and  _3
REMARK    2  A    between atoms: _3  and  _4
REMARK    3  A    between atoms: _3  and  _6
REMARK    4  A    between atoms: _6  and  _7
REMARK    5  A    between atoms: _12  and  _13
REMARK    6  A    between atoms: _15  and  _17
REMARK    7  A    between atoms: _17  and  _18
REMARK    8  A    between atoms: _17  and  _20
REMARK    9  A    between atoms: _20  and  _21
REMARK   10  A    between atoms: _24  and  _26
REMARK   11  A    between atoms: _26  and  _27
REMARK   12  A    between atoms: _26  and  _29
REMARK   13  A    between atoms: _29  and  _30
REMARK   14  A    between atoms: _35  and  _37
REMARK   15  A    between atoms: _37  and  _38
REMARK   16  A    between atoms: _37  and  _40
REMARK   17  A    between atoms: _43  and  _45
REMARK   18  A    between atoms: _45  and  _46
REMARK   19  A    between atoms: _45  and  _48
REMARK   20  A    between atoms: _48  and  _49
REMARK   21  A    between atoms: _52  and  _54
REMARK   22  A    between atoms: _54  and  _55
REMARK   23  A    between atoms: _54  and  _57
REMARK   24  A    between atoms: _57  and  _58
REMARK   25  A    between atoms: _58  and  _59
REMARK   26  A    between atoms: _64  and  _66
REMARK   27  A    between atoms: _66  and  _67
REMARK   28  A    between atoms: _66  and  _69
REMARK   29  A    between atoms: _69  and  _70
REMARK   30  A    between atoms: _73  and  _75
REMARK   31  A    between atoms: _75  and  _76
REMARK   32  A    between atoms: _75  and  _78
REMARK   33  A    between atoms: _78  and  _79
REMARK   34  A    between atoms: _79  and  _80
REMARK   35  A    between atoms: _82  and  _84
REMARK   36  A    between atoms: _84  and  _85
REMARK   37  A    between atoms: _84  and  _87
REMARK   38  A    between atoms: _87  and  _88
REMARK   39  A    between atoms: _93  and  _95
REMARK   40  A    between atoms: _95  and  _96
REMARK   41  A    between atoms: _95  and  _98
REMARK   42  A    between atoms: _98  and  _99
REMARK   43  A    between atoms: _104  and  _106
REMARK   44  A    between atoms: _106  and  _107
REMARK   45  A    between atoms: _106  and  _109
REMARK   46  A    between atoms: _109  and  _110
REMARK   47  A    between atoms: _110  and  _111
REMARK   48  A    between atoms: _111  and  _112
REMARK   49  A    between atoms: _121  and  _123
REMARK   50  A    between atoms: _123  and  _124
REMARK   51  A    between atoms: _123  and  _126
REMARK   52  A    between atoms: _126  and  _127
REMARK   53  A    between atoms: _132  and  _134
REMARK   54  A    between atoms: _134  and  _135
REMARK   55  A    between atoms: _134  and  _137
REMARK   56  A    between atoms: _137  and  _138
REMARK   57  A    between atoms: _138  and  _139
REMARK   58  A    between atoms: _142  and  _144
REMARK   59  A    between atoms: _144  and  _145
REMARK   60  A    between atoms: _144  and  _147
REMARK   61  A    between atoms: _147  and  _148
REMARK   62  A    between atoms: _149  and  MG_450
REMARK   63  A    between atoms: _153  and  _155
REMARK   64  A    between atoms: _155  and  _156
REMARK   65  A    between atoms: _155  and  _158
REMARK   66  A    between atoms: _158  and  _159
REMARK   67  A    between atoms: _159  and  _160
REMARK   68  A    between atoms: _162  and  _164
REMARK   69  A    between atoms: _164  and  _165
REMARK   70  A    between atoms: _164  and  _167
REMARK   71  A    between atoms: _167  and  _168
REMARK   72  A    between atoms: _173  and  _175
REMARK   73  A    between atoms: _175  and  _176
REMARK   74  A    between atoms: _175  and  _178
REMARK   75  A    between atoms: _178  and  _179
REMARK   76  A    between atoms: _179  and  _180
REMARK   77  A    between atoms: _183  and  _185
REMARK   78  A    between atoms: _185  and  _186
REMARK   79  A    between atoms: _185  and  _188
REMARK   80  A    between atoms: _188  and  _189
REMARK   81  A    between atoms: _189  and  _190
REMARK   82  A    between atoms: _193  and  _195
REMARK   83  A    between atoms: _195  and  _196
REMARK   84  A    between atoms: _195  and  _198
REMARK   85  A    between atoms: _198  and  _199
REMARK   86  A    between atoms: _199  and  _200
REMARK   87  A    between atoms: _202  and  _204
REMARK   88  A    between atoms: _204  and  _205
REMARK   89  A    between atoms: _204  and  _207
REMARK   90  A    between atoms: _207  and  _208
REMARK   91  A    between atoms: _213  and  _214
REMARK   92  A    between atoms: _216  and  _218
REMARK   93  A    between atoms: _218  and  _219
REMARK   94  A    between atoms: _218  and  _221
REMARK   95  A    between atoms: _221  and  _222
REMARK   96  A    between atoms: _222  and  _223
REMARK   97  A    between atoms: _223  and  _224
REMARK   98  A    between atoms: _224  and  _225
REMARK   99  A    between atoms: _229  and  _231
REMARK  100  A    between atoms: _231  and  _232
REMARK  101  A    between atoms: _231  and  _234
REMARK  102  A    between atoms: _236  and  _238
REMARK  103  A    between atoms: _238  and  _239
REMARK  104  A    between atoms: _238  and  _241
REMARK  105  A    between atoms: _241  and  _242
REMARK  106  A    between atoms: _242  and  _243
REMARK  107  A    between atoms: _246  and  _248
REMARK  108  A    between atoms: _248  and  _249
REMARK  109  A    between atoms: _248  and  _251
REMARK  110  A    between atoms: _251  and  _252
REMARK  111  A    between atoms: _257  and  _259
REMARK  112  A    between atoms: _259  and  _260
REMARK  113  A    between atoms: _263  and  _265
REMARK  114  A    between atoms: _265  and  _266
REMARK  115  A    between atoms: _265  and  _268
REMARK  116  A    between atoms: _268  and  _269
REMARK  117  A    between atoms: _269  and  _270
REMARK  118  A    between atoms: _272  and  _274
REMARK  119  A    between atoms: _274  and  _275
REMARK  120  A    between atoms: _274  and  _277
REMARK  121  A    between atoms: _277  and  _278
REMARK  122  A    between atoms: _288  and  _290
REMARK  123  A    between atoms: _290  and  _291
REMARK  124  A    between atoms: _290  and  _293
REMARK  125  A    between atoms: _293  and  _294
REMARK  126  A    between atoms: _297  and  _299
REMARK  127  A    between atoms: _299  and  _300
REMARK  128  A    between atoms: _299  and  _302
REMARK  129  A    between atoms: _302  and  _303
REMARK  130  A    between atoms: _303  and  _304
REMARK  131  A    between atoms: _309  and  _311
REMARK  132  A    between atoms: _311  and  _312
REMARK  133  A    between atoms: _311  and  _314
REMARK  134  A    between atoms: _314  and  _315
REMARK  135  A    between atoms: _318  and  _320
REMARK  136  A    between atoms: _320  and  _321
REMARK  137  A    between atoms: _320  and  _323
REMARK  138  A    between atoms: _323  and  _324
REMARK  139  A    between atoms: _324  and  _325
REMARK  140  A    between atoms: _330  and  _332
REMARK  141  A    between atoms: _332  and  _333
REMARK  142  A    between atoms: _332  and  _335
REMARK  143  A    between atoms: _333  and  _334
REMARK  144  A    between atoms: _333  and  _342
REMARK  145  A    between atoms: _335  and  _336
REMARK  146  A    between atoms: _342  and  _344
REMARK  147  A    between atoms: _344  and  _345
REMARK  148  A    between atoms: _344  and  _347
REMARK  149  A    between atoms: _349  and  _351
REMARK  150  A    between atoms: _351  and  _352
REMARK  151  A    between atoms: _351  and  _354
REMARK  152  A    between atoms: _354  and  _355
REMARK  153  A    between atoms: _355  and  _356
REMARK  154  A    between atoms: _358  and  _360
REMARK  155  A    between atoms: _360  and  _361
REMARK  156  A    between atoms: _360  and  _363
REMARK  157  A    between atoms: _363  and  _364
REMARK  158  A    between atoms: _369  and  _371
REMARK  159  A    between atoms: _371  and  _372
REMARK  160  A    between atoms: _374  and  _376
REMARK  161  A    between atoms: _376  and  _377
REMARK  162  A    between atoms: _376  and  _379
REMARK  163  A    between atoms: _382  and  _384
REMARK  164  A    between atoms: _384  and  _385
REMARK  165  A    between atoms: _384  and  _387
REMARK  166  A    between atoms: _387  and  _388
REMARK  167  A    between atoms: _391  and  _393
REMARK  168  A    between atoms: _393  and  _394
REMARK  169  A    between atoms: _393  and  _396
REMARK  170  A    between atoms: _396  and  _397
REMARK  171  A    between atoms: _399  and  _401
REMARK  172  A    between atoms: _401  and  _402
REMARK  173  A    between atoms: _401  and  _404
REMARK  174  A    between atoms: _404  and  _405
REMARK  175  A    between atoms: _415  and  _417
REMARK  176  A    between atoms: _417  and  _418
REMARK  177  A    between atoms: _417  and  _420
REMARK  178  A    between atoms: _420  and  _421
REMARK  179  A    between atoms: _423  and  _425
REMARK  180  A    between atoms: _425  and  _426
REMARK  181  A    between atoms: _425  and  _428
REMARK  182  A    between atoms: _428  and  _429
REMARK  183  A    between atoms: _429  and  _430
REMARK  184  A    between atoms: _433  and  _435
REMARK  185  A    between atoms: _435  and  _436
REMARK  186  A    between atoms: _435  and  _438
REMARK  187  A    between atoms: _438  and  _439
REMARK  188  A    between atoms: _439  and  _440
REMARK  189  A    between atoms: _440  and  _441
REMARK                            x       y       z     vdW  Elec       q    Type
REMARK                         _______ _______ _______ _____ _____    ______ ____
ROOT
ATOM      1  O   HOH     1     -12.210 -25.175 -18.053  0.00  0.00    +0.000 OA
ENDROOT
TORSDOF 0
REMARK  Name = ../refined-set-2016/3t0b/3t0b_pocket.pdb
REMARK  189 active torsions:
REMARK  status: ('A' for Active; 'I' for Inactive)
REMARK    1  A    between atoms: _1  and  _3
REMARK    2  A    between atoms: _3  and  _4
REMARK    3  A    between atoms: _3  and  _6
REMARK    4  A    between atoms: _6  and  _7
REMARK    5  A    between atoms: _12  and  _13
REMARK    6  A    between atoms: _15  and  _17
REMARK    7  A    between atoms: _17  and  _18
REMARK    8  A    between atoms: _17  and  _20
REMARK    9  A    between atoms: _20  and  _21
REMARK   10  A    between atoms: _24  and  _26
REMARK   11  A    between atoms: _26  and  _27
REMARK   12  A    between atoms: _26  and  _29
REMARK   13  A    between atoms: _29  and  _30
REMARK   14  A    between atoms: _35  and  _37
REMARK   15  A    between atoms: _37  and  _38
REMARK   16  A    between atoms: _37  and  _40
REMARK   17  A    between atoms: _43  and  _45
REMARK   18  A    between atoms: _45  and  _46
REMARK   19  A    between atoms: _45  and  _48
REMARK   20  A    between atoms: _48  and  _49
REMARK   21  A    between atoms: _52  and  _54
REMARK   22  A    between atoms: _54  and  _55
REMARK   23  A    between atoms: _54  and  _57
REMARK   24  A    between atoms: _57  and  _58
REMARK   25  A    between atoms: _58  and  _59
REMARK   26  A    between atoms: _64  and  _66
REMARK   27  A    between atoms: _66  and  _67
REMARK   28  A    between atoms: _66  and  _69
REMARK   29  A    between atoms: _69  and  _70
REMARK   30  A    between atoms: _73  and  _75
REMARK   31  A    between atoms: _75  and  _76
REMARK   32  A    between atoms: _75  and  _78
REMARK   33  A    between atoms: _78  and  _79
REMARK   34  A    between atoms: _79  and  _80
REMARK   35  A    between atoms: _82  and  _84
REMARK   36  A    between atoms: _84  and  _85
REMARK   37  A    between atoms: _84  and  _87
REMARK   38  A    between atoms: _87  and  _88
REMARK   39  A    between atoms: _93  and  _95
REMARK   40  A    between atoms: _95  and  _96
REMARK   41  A    between atoms: _95  and  _98
REMARK   42  A    between atoms: _98  and  _99
REMARK   43  A    between atoms: _104  and  _106
REMARK   44  A    between atoms: _106  and  _107
REMARK   45  A    between atoms: _106  and  _109
REMARK   46  A    between atoms: _109  and  _110
REMARK   47  A    between atoms: _110  and  _111
REMARK   48  A    between atoms: _111  and  _112
REMARK   49  A    between atoms: _121  and  _123
REMARK   50  A    between atoms: _123  and  _124
REMARK   51  A    between atoms: _123  and  _126
REMARK   52  A    between atoms: _126  and  _127
REMARK   53  A    between atoms: _132  and  _134
REMARK   54  A    between atoms: _134  and  _135
REMARK   55  A    between atoms: _134  and  _137
REMARK   56  A    between atoms: _137  and  _138
REMARK   57  A    between atoms: _138  and  _139
REMARK   58  A    between atoms: _142  and  _144
REMARK   59  A    between atoms: _144  and  _145
REMARK   60  A    between atoms: _144  and  _147
REMARK   61  A    between atoms: _147  and  _148
REMARK   62  A    between atoms: _149  and  MG_450
REMARK   63  A    between atoms: _153  and  _155
REMARK   64  A    between atoms: _155  and  _156
REMARK   65  A    between atoms: _155  and  _158
REMARK   66  A    between atoms: _158  and  _159
REMARK   67  A    between atoms: _159  and  _160
REMARK   68  A    between atoms: _162  and  _164
REMARK   69  A    between atoms: _164  and  _165
REMARK   70  A    between atoms: _164  and  _167
REMARK   71  A    between atoms: _167  and  _168
REMARK   72  A    between atoms: _173  and  _175
REMARK   73  A    between atoms: _175  and  _176
REMARK   74  A    between atoms: _175  and  _178
REMARK   75  A    between atoms: _178  and  _179
REMARK   76  A    between atoms: _179  and  _180
REMARK   77  A    between atoms: _183  and  _185
REMARK   78  A    between atoms: _185  and  _186
REMARK   79  A    between atoms: _185  and  _188
REMARK   80  A    between atoms: _188  and  _189
REMARK   81  A    between atoms: _189  and  _190
REMARK   82  A    between atoms: _193  and  _195
REMARK   83  A    between atoms: _195  and  _196
REMARK   84  A    between atoms: _195  and  _198
REMARK   85  A    between atoms: _198  and  _199
REMARK   86  A    between atoms: _199  and  _200
REMARK   87  A    between atoms: _202  and  _204
REMARK   88  A    between atoms: _204  and  _205
REMARK   89  A    between atoms: _204  and  _207
REMARK   90  A    between atoms: _207  and  _208
REMARK   91  A    between atoms: _213  and  _214
REMARK   92  A    between atoms: _216  and  _218
REMARK   93  A    between atoms: _218  and  _219
REMARK   94  A    between atoms: _218  and  _221
REMARK   95  A    between atoms: _221  and  _222
REMARK   96  A    between atoms: _222  and  _223
REMARK   97  A    between atoms: _223  and  _224
REMARK   98  A    between atoms: _224  and  _225
REMARK   99  A    between atoms: _229  and  _231
REMARK  100  A    between atoms: _231  and  _232
REMARK  101  A    between atoms: _231  and  _234
REMARK  102  A    between atoms: _236  and  _238
REMARK  103  A    between atoms: _238  and  _239
REMARK  104  A    between atoms: _238  and  _241
REMARK  105  A    between atoms: _241  and  _242
REMARK  106  A    between atoms: _242  and  _243
REMARK  107  A    between atoms: _246  and  _248
REMARK  108  A    between atoms: _248  and  _249
REMARK  109  A    between atoms: _248  and  _251
REMARK  110  A    between atoms: _251  and  _252
REMARK  111  A    between atoms: _257  and  _259
REMARK  112  A    between atoms: _259  and  _260
REMARK  113  A    between atoms: _263  and  _265
REMARK  114  A    between atoms: _265  and  _266
REMARK  115  A    between atoms: _265  and  _268
REMARK  116  A    between atoms: _268  and  _269
REMARK  117  A    between atoms: _269  and  _270
REMARK  118  A    between atoms: _272  and  _274
REMARK  119  A    between atoms: _274  and  _275
REMARK  120  A    between atoms: _274  and  _277
REMARK  121  A    between atoms: _277  and  _278
REMARK  122  A    between atoms: _288  and  _290
REMARK  123  A    between atoms: _290  and  _291
REMARK  124  A    between atoms: _290  and  _293
REMARK  125  A    between atoms: _293  and  _294
REMARK  126  A    between atoms: _297  and  _299
REMARK  127  A    between atoms: _299  and  _300
REMARK  128  A    between atoms: _299  and  _302
REMARK  129  A    between atoms: _302  and  _303
REMARK  130  A    between atoms: _303  and  _304
REMARK  131  A    between atoms: _309  and  _311
REMARK  132  A    between atoms: _311  and  _312
REMARK  133  A    between atoms: _311  and  _314
REMARK  134  A    between atoms: _314  and  _315
REMARK  135  A    between atoms: _318  and  _320
REMARK  136  A    between atoms: _320  and  _321
REMARK  137  A    between atoms: _320  and  _323
REMARK  138  A    between atoms: _323  and  _324
REMARK  139  A    between atoms: _324  and  _325
REMARK  140  A    between atoms: _330  and  _332
REMARK  141  A    between atoms: _332  and  _333
REMARK  142  A    between atoms: _332  and  _335
REMARK  143  A    between atoms: _333  and  _334
REMARK  144  A    between atoms: _333  and  _342
REMARK  145  A    between atoms: _335  and  _336
REMARK  146  A    between atoms: _342  and  _344
REMARK  147  A    between atoms: _344  and  _345
REMARK  148  A    between atoms: _344  and  _347
REMARK  149  A    between atoms: _349  and  _351
REMARK  150  A    between atoms: _351  and  _352
REMARK  151  A    between atoms: _351  and  _354
REMARK  152  A    between atoms: _354  and  _355
REMARK  153  A    between atoms: _355  and  _356
REMARK  154  A    between atoms: _358  and  _360
REMARK  155  A    between atoms: _360  and  _361
REMARK  156  A    between atoms: _360  and  _363
REMARK  157  A    between atoms: _363  and  _364
REMARK  158  A    between atoms: _369  and  _371
REMARK  159  A    between atoms: _371  and  _372
REMARK  160  A    between atoms: _374  and  _376
REMARK  161  A    between atoms: _376  and  _377
REMARK  162  A    between atoms: _376  and  _379
REMARK  163  A    between atoms: _382  and  _384
REMARK  164  A    between atoms: _384  and  _385
REMARK  165  A    between atoms: _384  and  _387
REMARK  166  A    between atoms: _387  and  _388
REMARK  167  A    between atoms: _391  and  _393
REMARK  168  A    between atoms: _393  and  _394
REMARK  169  A    between atoms: _393  and  _396
REMARK  170  A    between atoms: _396  and  _397
REMARK  171  A    between atoms: _399  and  _401
REMARK  172  A    between atoms: _401  and  _402
REMARK  173  A    between atoms: _401  and  _404
REMARK  174  A    between atoms: _404  and  _405
REMARK  175  A    between atoms: _415  and  _417
REMARK  176  A    between atoms: _417  and  _418
REMARK  177  A    between atoms: _417  and  _420
REMARK  178  A    between atoms: _420  and  _421
REMARK  179  A    between atoms: _423  and  _425
REMARK  180  A    between atoms: _425  and  _426
REMARK  181  A    between atoms: _425  and  _428
REMARK  182  A    between atoms: _428  and  _429
REMARK  183  A    between atoms: _429  and  _430
REMARK  184  A    between atoms: _433  and  _435
REMARK  185  A    between atoms: _435  and  _436
REMARK  186  A    between atoms: _435  and  _438
REMARK  187  A    between atoms: _438  and  _439
REMARK  188  A    between atoms: _439  and  _440
REMARK  189  A    between atoms: _440  and  _441
REMARK                            x       y       z     vdW  Elec       q    Type
REMARK                         _______ _______ _______ _____ _____    ______ ____
ROOT
ATOM      1  O   HOH     1      -8.304 -25.231 -18.941  0.00  0.00    +0.000 OA
ENDROOT
TORSDOF 0
REMARK  Name = ../refined-set-2016/3t0b/3t0b_pocket.pdb
REMARK  189 active torsions:
REMARK  status: ('A' for Active; 'I' for Inactive)
REMARK    1  A    between atoms: _1  and  _3
REMARK    2  A    between atoms: _3  and  _4
REMARK    3  A    between atoms: _3  and  _6
REMARK    4  A    between atoms: _6  and  _7
REMARK    5  A    between atoms: _12  and  _13
REMARK    6  A    between atoms: _15  and  _17
REMARK    7  A    between atoms: _17  and  _18
REMARK    8  A    between atoms: _17  and  _20
REMARK    9  A    between atoms: _20  and  _21
REMARK   10  A    between atoms: _24  and  _26
REMARK   11  A    between atoms: _26  and  _27
REMARK   12  A    between atoms: _26  and  _29
REMARK   13  A    between atoms: _29  and  _30
REMARK   14  A    between atoms: _35  and  _37
REMARK   15  A    between atoms: _37  and  _38
REMARK   16  A    between atoms: _37  and  _40
REMARK   17  A    between atoms: _43  and  _45
REMARK   18  A    between atoms: _45  and  _46
REMARK   19  A    between atoms: _45  and  _48
REMARK   20  A    between atoms: _48  and  _49
REMARK   21  A    between atoms: _52  and  _54
REMARK   22  A    between atoms: _54  and  _55
REMARK   23  A    between atoms: _54  and  _57
REMARK   24  A    between atoms: _57  and  _58
REMARK   25  A    between atoms: _58  and  _59
REMARK   26  A    between atoms: _64  and  _66
REMARK   27  A    between atoms: _66  and  _67
REMARK   28  A    between atoms: _66  and  _69
REMARK   29  A    between atoms: _69  and  _70
REMARK   30  A    between atoms: _73  and  _75
REMARK   31  A    between atoms: _75  and  _76
REMARK   32  A    between atoms: _75  and  _78
REMARK   33  A    between atoms: _78  and  _79
REMARK   34  A    between atoms: _79  and  _80
REMARK   35  A    between atoms: _82  and  _84
REMARK   36  A    between atoms: _84  and  _85
REMARK   37  A    between atoms: _84  and  _87
REMARK   38  A    between atoms: _87  and  _88
REMARK   39  A    between atoms: _93  and  _95
REMARK   40  A    between atoms: _95  and  _96
REMARK   41  A    between atoms: _95  and  _98
REMARK   42  A    between atoms: _98  and  _99
REMARK   43  A    between atoms: _104  and  _106
REMARK   44  A    between atoms: _106  and  _107
REMARK   45  A    between atoms: _106  and  _109
REMARK   46  A    between atoms: _109  and  _110
REMARK   47  A    between atoms: _110  and  _111
REMARK   48  A    between atoms: _111  and  _112
REMARK   49  A    between atoms: _121  and  _123
REMARK   50  A    between atoms: _123  and  _124
REMARK   51  A    between atoms: _123  and  _126
REMARK   52  A    between atoms: _126  and  _127
REMARK   53  A    between atoms: _132  and  _134
REMARK   54  A    between atoms: _134  and  _135
REMARK   55  A    between atoms: _134  and  _137
REMARK   56  A    between atoms: _137  and  _138
REMARK   57  A    between atoms: _138  and  _139
REMARK   58  A    between atoms: _142  and  _144
REMARK   59  A    between atoms: _144  and  _145
REMARK   60  A    between atoms: _144  and  _147
REMARK   61  A    between atoms: _147  and  _148
REMARK   62  A    between atoms: _149  and  MG_450
REMARK   63  A    between atoms: _153  and  _155
REMARK   64  A    between atoms: _155  and  _156
REMARK   65  A    between atoms: _155  and  _158
REMARK   66  A    between atoms: _158  and  _159
REMARK   67  A    between atoms: _159  and  _160
REMARK   68  A    between atoms: _162  and  _164
REMARK   69  A    between atoms: _164  and  _165
REMARK   70  A    between atoms: _164  and  _167
REMARK   71  A    between atoms: _167  and  _168
REMARK   72  A    between atoms: _173  and  _175
REMARK   73  A    between atoms: _175  and  _176
REMARK   74  A    between atoms: _175  and  _178
REMARK   75  A    between atoms: _178  and  _179
REMARK   76  A    between atoms: _179  and  _180
REMARK   77  A    between atoms: _183  and  _185
REMARK   78  A    between atoms: _185  and  _186
REMARK   79  A    between atoms: _185  and  _188
REMARK   80  A    between atoms: _188  and  _189
REMARK   81  A    between atoms: _189  and  _190
REMARK   82  A    between atoms: _193  and  _195
REMARK   83  A    between atoms: _195  and  _196
REMARK   84  A    between atoms: _195  and  _198
REMARK   85  A    between atoms: _198  and  _199
REMARK   86  A    between atoms: _199  and  _200
REMARK   87  A    between atoms: _202  and  _204
REMARK   88  A    between atoms: _204  and  _205
REMARK   89  A    between atoms: _204  and  _207
REMARK   90  A    between atoms: _207  and  _208
REMARK   91  A    between atoms: _213  and  _214
REMARK   92  A    between atoms: _216  and  _218
REMARK   93  A    between atoms: _218  and  _219
REMARK   94  A    between atoms: _218  and  _221
REMARK   95  A    between atoms: _221  and  _222
REMARK   96  A    between atoms: _222  and  _223
REMARK   97  A    between atoms: _223  and  _224
REMARK   98  A    between atoms: _224  and  _225
REMARK   99  A    between atoms: _229  and  _231
REMARK  100  A    between atoms: _231  and  _232
REMARK  101  A    between atoms: _231  and  _234
REMARK  102  A    between atoms: _236  and  _238
REMARK  103  A    between atoms: _238  and  _239
REMARK  104  A    between atoms: _238  and  _241
REMARK  105  A    between atoms: _241  and  _242
REMARK  106  A    between atoms: _242  and  _243
REMARK  107  A    between atoms: _246  and  _248
REMARK  108  A    between atoms: _248  and  _249
REMARK  109  A    between atoms: _248  and  _251
REMARK  110  A    between atoms: _251  and  _252
REMARK  111  A    between atoms: _257  and  _259
REMARK  112  A    between atoms: _259  and  _260
REMARK  113  A    between atoms: _263  and  _265
REMARK  114  A    between atoms: _265  and  _266
REMARK  115  A    between atoms: _265  and  _268
REMARK  116  A    between atoms: _268  and  _269
REMARK  117  A    between atoms: _269  and  _270
REMARK  118  A    between atoms: _272  and  _274
REMARK  119  A    between atoms: _274  and  _275
REMARK  120  A    between atoms: _274  and  _277
REMARK  121  A    between atoms: _277  and  _278
REMARK  122  A    between atoms: _288  and  _290
REMARK  123  A    between atoms: _290  and  _291
REMARK  124  A    between atoms: _290  and  _293
REMARK  125  A    between atoms: _293  and  _294
REMARK  126  A    between atoms: _297  and  _299
REMARK  127  A    between atoms: _299  and  _300
REMARK  128  A    between atoms: _299  and  _302
REMARK  129  A    between atoms: _302  and  _303
REMARK  130  A    between atoms: _303  and  _304
REMARK  131  A    between atoms: _309  and  _311
REMARK  132  A    between atoms: _311  and  _312
REMARK  133  A    between atoms: _311  and  _314
REMARK  134  A    between atoms: _314  and  _315
REMARK  135  A    between atoms: _318  and  _320
REMARK  136  A    between atoms: _320  and  _321
REMARK  137  A    between atoms: _320  and  _323
REMARK  138  A    between atoms: _323  and  _324
REMARK  139  A    between atoms: _324  and  _325
REMARK  140  A    between atoms: _330  and  _332
REMARK  141  A    between atoms: _332  and  _333
REMARK  142  A    between atoms: _332  and  _335
REMARK  143  A    between atoms: _333  and  _334
REMARK  144  A    between atoms: _333  and  _342
REMARK  145  A    between atoms: _335  and  _336
REMARK  146  A    between atoms: _342  and  _344
REMARK  147  A    between atoms: _344  and  _345
REMARK  148  A    between atoms: _344  and  _347
REMARK  149  A    between atoms: _349  and  _351
REMARK  150  A    between atoms: _351  and  _352
REMARK  151  A    between atoms: _351  and  _354
REMARK  152  A    between atoms: _354  and  _355
REMARK  153  A    between atoms: _355  and  _356
REMARK  154  A    between atoms: _358  and  _360
REMARK  155  A    between atoms: _360  and  _361
REMARK  156  A    between atoms: _360  and  _363
REMARK  157  A    between atoms: _363  and  _364
REMARK  158  A    between atoms: _369  and  _371
REMARK  159  A    between atoms: _371  and  _372
REMARK  160  A    between atoms: _374  and  _376
REMARK  161  A    between atoms: _376  and  _377
REMARK  162  A    between atoms: _376  and  _379
REMARK  163  A    between atoms: _382  and  _384
REMARK  164  A    between atoms: _384  and  _385
REMARK  165  A    between atoms: _384  and  _387
REMARK  166  A    between atoms: _387  and  _388
REMARK  167  A    between atoms: _391  and  _393
REMARK  168  A    between atoms: _393  and  _394
REMARK  169  A    between atoms: _393  and  _396
REMARK  170  A    between atoms: _396  and  _397
REMARK  171  A    between atoms: _399  and  _401
REMARK  172  A    between atoms: _401  and  _402
REMARK  173  A    between atoms: _401  and  _404
REMARK  174  A    between atoms: _404  and  _405
REMARK  175  A    between atoms: _415  and  _417
REMARK  176  A    between atoms: _417  and  _418
REMARK  177  A    between atoms: _417  and  _420
REMARK  178  A    between atoms: _420  and  _421
REMARK  179  A    between atoms: _423  and  _425
REMARK  180  A    between atoms: _425  and  _426
REMARK  181  A    between atoms: _425  and  _428
REMARK  182  A    between atoms: _428  and  _429
REMARK  183  A    between atoms: _429  and  _430
REMARK  184  A    between atoms: _433  and  _435
REMARK  185  A    between atoms: _435  and  _436
REMARK  186  A    between atoms: _435  and  _438
REMARK  187  A    between atoms: _438  and  _439
REMARK  188  A    between atoms: _439  and  _440
REMARK  189  A    between atoms: _440  and  _441
REMARK                            x       y       z     vdW  Elec       q    Type
REMARK                         _______ _______ _______ _____ _____    ______ ____
ROOT
ATOM      1  O   HOH     1      -7.398 -31.638 -31.831  0.00  0.00    +0.000 OA
ENDROOT
TORSDOF 0
REMARK  Name = ../refined-set-2016/3t0b/3t0b_pocket.pdb
REMARK  189 active torsions:
REMARK  status: ('A' for Active; 'I' for Inactive)
REMARK    1  A    between atoms: _1  and  _3
REMARK    2  A    between atoms: _3  and  _4
REMARK    3  A    between atoms: _3  and  _6
REMARK    4  A    between atoms: _6  and  _7
REMARK    5  A    between atoms: _12  and  _13
REMARK    6  A    between atoms: _15  and  _17
REMARK    7  A    between atoms: _17  and  _18
REMARK    8  A    between atoms: _17  and  _20
REMARK    9  A    between atoms: _20  and  _21
REMARK   10  A    between atoms: _24  and  _26
REMARK   11  A    between atoms: _26  and  _27
REMARK   12  A    between atoms: _26  and  _29
REMARK   13  A    between atoms: _29  and  _30
REMARK   14  A    between atoms: _35  and  _37
REMARK   15  A    between atoms: _37  and  _38
REMARK   16  A    between atoms: _37  and  _40
REMARK   17  A    between atoms: _43  and  _45
REMARK   18  A    between atoms: _45  and  _46
REMARK   19  A    between atoms: _45  and  _48
REMARK   20  A    between atoms: _48  and  _49
REMARK   21  A    between atoms: _52  and  _54
REMARK   22  A    between atoms: _54  and  _55
REMARK   23  A    between atoms: _54  and  _57
REMARK   24  A    between atoms: _57  and  _58
REMARK   25  A    between atoms: _58  and  _59
REMARK   26  A    between atoms: _64  and  _66
REMARK   27  A    between atoms: _66  and  _67
REMARK   28  A    between atoms: _66  and  _69
REMARK   29  A    between atoms: _69  and  _70
REMARK   30  A    between atoms: _73  and  _75
REMARK   31  A    between atoms: _75  and  _76
REMARK   32  A    between atoms: _75  and  _78
REMARK   33  A    between atoms: _78  and  _79
REMARK   34  A    between atoms: _79  and  _80
REMARK   35  A    between atoms: _82  and  _84
REMARK   36  A    between atoms: _84  and  _85
REMARK   37  A    between atoms: _84  and  _87
REMARK   38  A    between atoms: _87  and  _88
REMARK   39  A    between atoms: _93  and  _95
REMARK   40  A    between atoms: _95  and  _96
REMARK   41  A    between atoms: _95  and  _98
REMARK   42  A    between atoms: _98  and  _99
REMARK   43  A    between atoms: _104  and  _106
REMARK   44  A    between atoms: _106  and  _107
REMARK   45  A    between atoms: _106  and  _109
REMARK   46  A    between atoms: _109  and  _110
REMARK   47  A    between atoms: _110  and  _111
REMARK   48  A    between atoms: _111  and  _112
REMARK   49  A    between atoms: _121  and  _123
REMARK   50  A    between atoms: _123  and  _124
REMARK   51  A    between atoms: _123  and  _126
REMARK   52  A    between atoms: _126  and  _127
REMARK   53  A    between atoms: _132  and  _134
REMARK   54  A    between atoms: _134  and  _135
REMARK   55  A    between atoms: _134  and  _137
REMARK   56  A    between atoms: _137  and  _138
REMARK   57  A    between atoms: _138  and  _139
REMARK   58  A    between atoms: _142  and  _144
REMARK   59  A    between atoms: _144  and  _145
REMARK   60  A    between atoms: _144  and  _147
REMARK   61  A    between atoms: _147  and  _148
REMARK   62  A    between atoms: _149  and  MG_450
REMARK   63  A    between atoms: _153  and  _155
REMARK   64  A    between atoms: _155  and  _156
REMARK   65  A    between atoms: _155  and  _158
REMARK   66  A    between atoms: _158  and  _159
REMARK   67  A    between atoms: _159  and  _160
REMARK   68  A    between atoms: _162  and  _164
REMARK   69  A    between atoms: _164  and  _165
REMARK   70  A    between atoms: _164  and  _167
REMARK   71  A    between atoms: _167  and  _168
REMARK   72  A    between atoms: _173  and  _175
REMARK   73  A    between atoms: _175  and  _176
REMARK   74  A    between atoms: _175  and  _178
REMARK   75  A    between atoms: _178  and  _179
REMARK   76  A    between atoms: _179  and  _180
REMARK   77  A    between atoms: _183  and  _185
REMARK   78  A    between atoms: _185  and  _186
REMARK   79  A    between atoms: _185  and  _188
REMARK   80  A    between atoms: _188  and  _189
REMARK   81  A    between atoms: _189  and  _190
REMARK   82  A    between atoms: _193  and  _195
REMARK   83  A    between atoms: _195  and  _196
REMARK   84  A    between atoms: _195  and  _198
REMARK   85  A    between atoms: _198  and  _199
REMARK   86  A    between atoms: _199  and  _200
REMARK   87  A    between atoms: _202  and  _204
REMARK   88  A    between atoms: _204  and  _205
REMARK   89  A    between atoms: _204  and  _207
REMARK   90  A    between atoms: _207  and  _208
REMARK   91  A    between atoms: _213  and  _214
REMARK   92  A    between atoms: _216  and  _218
REMARK   93  A    between atoms: _218  and  _219
REMARK   94  A    between atoms: _218  and  _221
REMARK   95  A    between atoms: _221  and  _222
REMARK   96  A    between atoms: _222  and  _223
REMARK   97  A    between atoms: _223  and  _224
REMARK   98  A    between atoms: _224  and  _225
REMARK   99  A    between atoms: _229  and  _231
REMARK  100  A    between atoms: _231  and  _232
REMARK  101  A    between atoms: _231  and  _234
REMARK  102  A    between atoms: _236  and  _238
REMARK  103  A    between atoms: _238  and  _239
REMARK  104  A    between atoms: _238  and  _241
REMARK  105  A    between atoms: _241  and  _242
REMARK  106  A    between atoms: _242  and  _243
REMARK  107  A    between atoms: _246  and  _248
REMARK  108  A    between atoms: _248  and  _249
REMARK  109  A    between atoms: _248  and  _251
REMARK  110  A    between atoms: _251  and  _252
REMARK  111  A    between atoms: _257  and  _259
REMARK  112  A    between atoms: _259  and  _260
REMARK  113  A    between atoms: _263  and  _265
REMARK  114  A    between atoms: _265  and  _266
REMARK  115  A    between atoms: _265  and  _268
REMARK  116  A    between atoms: _268  and  _269
REMARK  117  A    between atoms: _269  and  _270
REMARK  118  A    between atoms: _272  and  _274
REMARK  119  A    between atoms: _274  and  _275
REMARK  120  A    between atoms: _274  and  _277
REMARK  121  A    between atoms: _277  and  _278
REMARK  122  A    between atoms: _288  and  _290
REMARK  123  A    between atoms: _290  and  _291
REMARK  124  A    between atoms: _290  and  _293
REMARK  125  A    between atoms: _293  and  _294
REMARK  126  A    between atoms: _297  and  _299
REMARK  127  A    between atoms: _299  and  _300
REMARK  128  A    between atoms: _299  and  _302
REMARK  129  A    between atoms: _302  and  _303
REMARK  130  A    between atoms: _303  and  _304
REMARK  131  A    between atoms: _309  and  _311
REMARK  132  A    between atoms: _311  and  _312
REMARK  133  A    between atoms: _311  and  _314
REMARK  134  A    between atoms: _314  and  _315
REMARK  135  A    between atoms: _318  and  _320
REMARK  136  A    between atoms: _320  and  _321
REMARK  137  A    between atoms: _320  and  _323
REMARK  138  A    between atoms: _323  and  _324
REMARK  139  A    between atoms: _324  and  _325
REMARK  140  A    between atoms: _330  and  _332
REMARK  141  A    between atoms: _332  and  _333
REMARK  142  A    between atoms: _332  and  _335
REMARK  143  A    between atoms: _333  and  _334
REMARK  144  A    between atoms: _333  and  _342
REMARK  145  A    between atoms: _335  and  _336
REMARK  146  A    between atoms: _342  and  _344
REMARK  147  A    between atoms: _344  and  _345
REMARK  148  A    between atoms: _344  and  _347
REMARK  149  A    between atoms: _349  and  _351
REMARK  150  A    between atoms: _351  and  _352
REMARK  151  A    between atoms: _351  and  _354
REMARK  152  A    between atoms: _354  and  _355
REMARK  153  A    between atoms: _355  and  _356
REMARK  154  A    between atoms: _358  and  _360
REMARK  155  A    between atoms: _360  and  _361
REMARK  156  A    between atoms: _360  and  _363
REMARK  157  A    between atoms: _363  and  _364
REMARK  158  A    between atoms: _369  and  _371
REMARK  159  A    between atoms: _371  and  _372
REMARK  160  A    between atoms: _374  and  _376
REMARK  161  A    between atoms: _376  and  _377
REMARK  162  A    between atoms: _376  and  _379
REMARK  163  A    between atoms: _382  and  _384
REMARK  164  A    between atoms: _384  and  _385
REMARK  165  A    between atoms: _384  and  _387
REMARK  166  A    between atoms: _387  and  _388
REMARK  167  A    between atoms: _391  and  _393
REMARK  168  A    between atoms: _393  and  _394
REMARK  169  A    between atoms: _393  and  _396
REMARK  170  A    between atoms: _396  and  _397
REMARK  171  A    between atoms: _399  and  _401
REMARK  172  A    between atoms: _401  and  _402
REMARK  173  A    between atoms: _401  and  _404
REMARK  174  A    between atoms: _404  and  _405
REMARK  175  A    between atoms: _415  and  _417
REMARK  176  A    between atoms: _417  and  _418
REMARK  177  A    between atoms: _417  and  _420
REMARK  178  A    between atoms: _420  and  _421
REMARK  179  A    between atoms: _423  and  _425
REMARK  180  A    between atoms: _425  and  _426
REMARK  181  A    between atoms: _425  and  _428
REMARK  182  A    between atoms: _428  and  _429
REMARK  183  A    between atoms: _429  and  _430
REMARK  184  A    between atoms: _433  and  _435
REMARK  185  A    between atoms: _435  and  _436
REMARK  186  A    between atoms: _435  and  _438
REMARK  187  A    between atoms: _438  and  _439
REMARK  188  A    between atoms: _439  and  _440
REMARK  189  A    between atoms: _440  and  _441
REMARK                            x       y       z     vdW  Elec       q    Type
REMARK                         _______ _______ _______ _____ _____    ______ ____
ROOT
ATOM      1  O   HOH     1     -12.625 -30.399 -24.533  0.00  0.00    +0.000 OA
ENDROOT
TORSDOF 0
REMARK  Name = ../refined-set-2016/3t0b/3t0b_pocket.pdb
REMARK  189 active torsions:
REMARK  status: ('A' for Active; 'I' for Inactive)
REMARK    1  A    between atoms: _1  and  _3
REMARK    2  A    between atoms: _3  and  _4
REMARK    3  A    between atoms: _3  and  _6
REMARK    4  A    between atoms: _6  and  _7
REMARK    5  A    between atoms: _12  and  _13
REMARK    6  A    between atoms: _15  and  _17
REMARK    7  A    between atoms: _17  and  _18
REMARK    8  A    between atoms: _17  and  _20
REMARK    9  A    between atoms: _20  and  _21
REMARK   10  A    between atoms: _24  and  _26
REMARK   11  A    between atoms: _26  and  _27
REMARK   12  A    between atoms: _26  and  _29
REMARK   13  A    between atoms: _29  and  _30
REMARK   14  A    between atoms: _35  and  _37
REMARK   15  A    between atoms: _37  and  _38
REMARK   16  A    between atoms: _37  and  _40
REMARK   17  A    between atoms: _43  and  _45
REMARK   18  A    between atoms: _45  and  _46
REMARK   19  A    between atoms: _45  and  _48
REMARK   20  A    between atoms: _48  and  _49
REMARK   21  A    between atoms: _52  and  _54
REMARK   22  A    between atoms: _54  and  _55
REMARK   23  A    between atoms: _54  and  _57
REMARK   24  A    between atoms: _57  and  _58
REMARK   25  A    between atoms: _58  and  _59
REMARK   26  A    between atoms: _64  and  _66
REMARK   27  A    between atoms: _66  and  _67
REMARK   28  A    between atoms: _66  and  _69
REMARK   29  A    between atoms: _69  and  _70
REMARK   30  A    between atoms: _73  and  _75
REMARK   31  A    between atoms: _75  and  _76
REMARK   32  A    between atoms: _75  and  _78
REMARK   33  A    between atoms: _78  and  _79
REMARK   34  A    between atoms: _79  and  _80
REMARK   35  A    between atoms: _82  and  _84
REMARK   36  A    between atoms: _84  and  _85
REMARK   37  A    between atoms: _84  and  _87
REMARK   38  A    between atoms: _87  and  _88
REMARK   39  A    between atoms: _93  and  _95
REMARK   40  A    between atoms: _95  and  _96
REMARK   41  A    between atoms: _95  and  _98
REMARK   42  A    between atoms: _98  and  _99
REMARK   43  A    between atoms: _104  and  _106
REMARK   44  A    between atoms: _106  and  _107
REMARK   45  A    between atoms: _106  and  _109
REMARK   46  A    between atoms: _109  and  _110
REMARK   47  A    between atoms: _110  and  _111
REMARK   48  A    between atoms: _111  and  _112
REMARK   49  A    between atoms: _121  and  _123
REMARK   50  A    between atoms: _123  and  _124
REMARK   51  A    between atoms: _123  and  _126
REMARK   52  A    between atoms: _126  and  _127
REMARK   53  A    between atoms: _132  and  _134
REMARK   54  A    between atoms: _134  and  _135
REMARK   55  A    between atoms: _134  and  _137
REMARK   56  A    between atoms: _137  and  _138
REMARK   57  A    between atoms: _138  and  _139
REMARK   58  A    between atoms: _142  and  _144
REMARK   59  A    between atoms: _144  and  _145
REMARK   60  A    between atoms: _144  and  _147
REMARK   61  A    between atoms: _147  and  _148
REMARK   62  A    between atoms: _149  and  MG_450
REMARK   63  A    between atoms: _153  and  _155
REMARK   64  A    between atoms: _155  and  _156
REMARK   65  A    between atoms: _155  and  _158
REMARK   66  A    between atoms: _158  and  _159
REMARK   67  A    between atoms: _159  and  _160
REMARK   68  A    between atoms: _162  and  _164
REMARK   69  A    between atoms: _164  and  _165
REMARK   70  A    between atoms: _164  and  _167
REMARK   71  A    between atoms: _167  and  _168
REMARK   72  A    between atoms: _173  and  _175
REMARK   73  A    between atoms: _175  and  _176
REMARK   74  A    between atoms: _175  and  _178
REMARK   75  A    between atoms: _178  and  _179
REMARK   76  A    between atoms: _179  and  _180
REMARK   77  A    between atoms: _183  and  _185
REMARK   78  A    between atoms: _185  and  _186
REMARK   79  A    between atoms: _185  and  _188
REMARK   80  A    between atoms: _188  and  _189
REMARK   81  A    between atoms: _189  and  _190
REMARK   82  A    between atoms: _193  and  _195
REMARK   83  A    between atoms: _195  and  _196
REMARK   84  A    between atoms: _195  and  _198
REMARK   85  A    between atoms: _198  and  _199
REMARK   86  A    between atoms: _199  and  _200
REMARK   87  A    between atoms: _202  and  _204
REMARK   88  A    between atoms: _204  and  _205
REMARK   89  A    between atoms: _204  and  _207
REMARK   90  A    between atoms: _207  and  _208
REMARK   91  A    between atoms: _213  and  _214
REMARK   92  A    between atoms: _216  and  _218
REMARK   93  A    between atoms: _218  and  _219
REMARK   94  A    between atoms: _218  and  _221
REMARK   95  A    between atoms: _221  and  _222
REMARK   96  A    between atoms: _222  and  _223
REMARK   97  A    between atoms: _223  and  _224
REMARK   98  A    between atoms: _224  and  _225
REMARK   99  A    between atoms: _229  and  _231
REMARK  100  A    between atoms: _231  and  _232
REMARK  101  A    between atoms: _231  and  _234
REMARK  102  A    between atoms: _236  and  _238
REMARK  103  A    between atoms: _238  and  _239
REMARK  104  A    between atoms: _238  and  _241
REMARK  105  A    between atoms: _241  and  _242
REMARK  106  A    between atoms: _242  and  _243
REMARK  107  A    between atoms: _246  and  _248
REMARK  108  A    between atoms: _248  and  _249
REMARK  109  A    between atoms: _248  and  _251
REMARK  110  A    between atoms: _251  and  _252
REMARK  111  A    between atoms: _257  and  _259
REMARK  112  A    between atoms: _259  and  _260
REMARK  113  A    between atoms: _263  and  _265
REMARK  114  A    between atoms: _265  and  _266
REMARK  115  A    between atoms: _265  and  _268
REMARK  116  A    between atoms: _268  and  _269
REMARK  117  A    between atoms: _269  and  _270
REMARK  118  A    between atoms: _272  and  _274
REMARK  119  A    between atoms: _274  and  _275
REMARK  120  A    between atoms: _274  and  _277
REMARK  121  A    between atoms: _277  and  _278
REMARK  122  A    between atoms: _288  and  _290
REMARK  123  A    between atoms: _290  and  _291
REMARK  124  A    between atoms: _290  and  _293
REMARK  125  A    between atoms: _293  and  _294
REMARK  126  A    between atoms: _297  and  _299
REMARK  127  A    between atoms: _299  and  _300
REMARK  128  A    between atoms: _299  and  _302
REMARK  129  A    between atoms: _302  and  _303
REMARK  130  A    between atoms: _303  and  _304
REMARK  131  A    between atoms: _309  and  _311
REMARK  132  A    between atoms: _311  and  _312
REMARK  133  A    between atoms: _311  and  _314
REMARK  134  A    between atoms: _314  and  _315
REMARK  135  A    between atoms: _318  and  _320
REMARK  136  A    between atoms: _320  and  _321
REMARK  137  A    between atoms: _320  and  _323
REMARK  138  A    between atoms: _323  and  _324
REMARK  139  A    between atoms: _324  and  _325
REMARK  140  A    between atoms: _330  and  _332
REMARK  141  A    between atoms: _332  and  _333
REMARK  142  A    between atoms: _332  and  _335
REMARK  143  A    between atoms: _333  and  _334
REMARK  144  A    between atoms: _333  and  _342
REMARK  145  A    between atoms: _335  and  _336
REMARK  146  A    between atoms: _342  and  _344
REMARK  147  A    between atoms: _344  and  _345
REMARK  148  A    between atoms: _344  and  _347
REMARK  149  A    between atoms: _349  and  _351
REMARK  150  A    between atoms: _351  and  _352
REMARK  151  A    between atoms: _351  and  _354
REMARK  152  A    between atoms: _354  and  _355
REMARK  153  A    between atoms: _355  and  _356
REMARK  154  A    between atoms: _358  and  _360
REMARK  155  A    between atoms: _360  and  _361
REMARK  156  A    between atoms: _360  and  _363
REMARK  157  A    between atoms: _363  and  _364
REMARK  158  A    between atoms: _369  and  _371
REMARK  159  A    between atoms: _371  and  _372
REMARK  160  A    between atoms: _374  and  _376
REMARK  161  A    between atoms: _376  and  _377
REMARK  162  A    between atoms: _376  and  _379
REMARK  163  A    between atoms: _382  and  _384
REMARK  164  A    between atoms: _384  and  _385
REMARK  165  A    between atoms: _384  and  _387
REMARK  166  A    between atoms: _387  and  _388
REMARK  167  A    between atoms: _391  and  _393
REMARK  168  A    between atoms: _393  and  _394
REMARK  169  A    between atoms: _393  and  _396
REMARK  170  A    between atoms: _396  and  _397
REMARK  171  A    between atoms: _399  and  _401
REMARK  172  A    between atoms: _401  and  _402
REMARK  173  A    between atoms: _401  and  _404
REMARK  174  A    between atoms: _404  and  _405
REMARK  175  A    between atoms: _415  and  _417
REMARK  176  A    between atoms: _417  and  _418
REMARK  177  A    between atoms: _417  and  _420
REMARK  178  A    between atoms: _420  and  _421
REMARK  179  A    between atoms: _423  and  _425
REMARK  180  A    between atoms: _425  and  _426
REMARK  181  A    between atoms: _425  and  _428
REMARK  182  A    between atoms: _428  and  _429
REMARK  183  A    between atoms: _429  and  _430
REMARK  184  A    between atoms: _433  and  _435
REMARK  185  A    between atoms: _435  and  _436
REMARK  186  A    between atoms: _435  and  _438
REMARK  187  A    between atoms: _438  and  _439
REMARK  188  A    between atoms: _439  and  _440
REMARK  189  A    between atoms: _440  and  _441
REMARK                            x       y       z     vdW  Elec       q    Type
REMARK                         _______ _______ _______ _____ _____    ______ ____
ROOT
ATOM      1  O   HOH     1     -15.244 -23.209 -23.229  0.00  0.00    +0.000 OA
ENDROOT
TORSDOF 0
REMARK  Name = ../refined-set-2016/3t0b/3t0b_pocket.pdb
REMARK  189 active torsions:
REMARK  status: ('A' for Active; 'I' for Inactive)
REMARK    1  A    between atoms: _1  and  _3
REMARK    2  A    between atoms: _3  and  _4
REMARK    3  A    between atoms: _3  and  _6
REMARK    4  A    between atoms: _6  and  _7
REMARK    5  A    between atoms: _12  and  _13
REMARK    6  A    between atoms: _15  and  _17
REMARK    7  A    between atoms: _17  and  _18
REMARK    8  A    between atoms: _17  and  _20
REMARK    9  A    between atoms: _20  and  _21
REMARK   10  A    between atoms: _24  and  _26
REMARK   11  A    between atoms: _26  and  _27
REMARK   12  A    between atoms: _26  and  _29
REMARK   13  A    between atoms: _29  and  _30
REMARK   14  A    between atoms: _35  and  _37
REMARK   15  A    between atoms: _37  and  _38
REMARK   16  A    between atoms: _37  and  _40
REMARK   17  A    between atoms: _43  and  _45
REMARK   18  A    between atoms: _45  and  _46
REMARK   19  A    between atoms: _45  and  _48
REMARK   20  A    between atoms: _48  and  _49
REMARK   21  A    between atoms: _52  and  _54
REMARK   22  A    between atoms: _54  and  _55
REMARK   23  A    between atoms: _54  and  _57
REMARK   24  A    between atoms: _57  and  _58
REMARK   25  A    between atoms: _58  and  _59
REMARK   26  A    between atoms: _64  and  _66
REMARK   27  A    between atoms: _66  and  _67
REMARK   28  A    between atoms: _66  and  _69
REMARK   29  A    between atoms: _69  and  _70
REMARK   30  A    between atoms: _73  and  _75
REMARK   31  A    between atoms: _75  and  _76
REMARK   32  A    between atoms: _75  and  _78
REMARK   33  A    between atoms: _78  and  _79
REMARK   34  A    between atoms: _79  and  _80
REMARK   35  A    between atoms: _82  and  _84
REMARK   36  A    between atoms: _84  and  _85
REMARK   37  A    between atoms: _84  and  _87
REMARK   38  A    between atoms: _87  and  _88
REMARK   39  A    between atoms: _93  and  _95
REMARK   40  A    between atoms: _95  and  _96
REMARK   41  A    between atoms: _95  and  _98
REMARK   42  A    between atoms: _98  and  _99
REMARK   43  A    between atoms: _104  and  _106
REMARK   44  A    between atoms: _106  and  _107
REMARK   45  A    between atoms: _106  and  _109
REMARK   46  A    between atoms: _109  and  _110
REMARK   47  A    between atoms: _110  and  _111
REMARK   48  A    between atoms: _111  and  _112
REMARK   49  A    between atoms: _121  and  _123
REMARK   50  A    between atoms: _123  and  _124
REMARK   51  A    between atoms: _123  and  _126
REMARK   52  A    between atoms: _126  and  _127
REMARK   53  A    between atoms: _132  and  _134
REMARK   54  A    between atoms: _134  and  _135
REMARK   55  A    between atoms: _134  and  _137
REMARK   56  A    between atoms: _137  and  _138
REMARK   57  A    between atoms: _138  and  _139
REMARK   58  A    between atoms: _142  and  _144
REMARK   59  A    between atoms: _144  and  _145
REMARK   60  A    between atoms: _144  and  _147
REMARK   61  A    between atoms: _147  and  _148
REMARK   62  A    between atoms: _149  and  MG_450
REMARK   63  A    between atoms: _153  and  _155
REMARK   64  A    between atoms: _155  and  _156
REMARK   65  A    between atoms: _155  and  _158
REMARK   66  A    between atoms: _158  and  _159
REMARK   67  A    between atoms: _159  and  _160
REMARK   68  A    between atoms: _162  and  _164
REMARK   69  A    between atoms: _164  and  _165
REMARK   70  A    between atoms: _164  and  _167
REMARK   71  A    between atoms: _167  and  _168
REMARK   72  A    between atoms: _173  and  _175
REMARK   73  A    between atoms: _175  and  _176
REMARK   74  A    between atoms: _175  and  _178
REMARK   75  A    between atoms: _178  and  _179
REMARK   76  A    between atoms: _179  and  _180
REMARK   77  A    between atoms: _183  and  _185
REMARK   78  A    between atoms: _185  and  _186
REMARK   79  A    between atoms: _185  and  _188
REMARK   80  A    between atoms: _188  and  _189
REMARK   81  A    between atoms: _189  and  _190
REMARK   82  A    between atoms: _193  and  _195
REMARK   83  A    between atoms: _195  and  _196
REMARK   84  A    between atoms: _195  and  _198
REMARK   85  A    between atoms: _198  and  _199
REMARK   86  A    between atoms: _199  and  _200
REMARK   87  A    between atoms: _202  and  _204
REMARK   88  A    between atoms: _204  and  _205
REMARK   89  A    between atoms: _204  and  _207
REMARK   90  A    between atoms: _207  and  _208
REMARK   91  A    between atoms: _213  and  _214
REMARK   92  A    between atoms: _216  and  _218
REMARK   93  A    between atoms: _218  and  _219
REMARK   94  A    between atoms: _218  and  _221
REMARK   95  A    between atoms: _221  and  _222
REMARK   96  A    between atoms: _222  and  _223
REMARK   97  A    between atoms: _223  and  _224
REMARK   98  A    between atoms: _224  and  _225
REMARK   99  A    between atoms: _229  and  _231
REMARK  100  A    between atoms: _231  and  _232
REMARK  101  A    between atoms: _231  and  _234
REMARK  102  A    between atoms: _236  and  _238
REMARK  103  A    between atoms: _238  and  _239
REMARK  104  A    between atoms: _238  and  _241
REMARK  105  A    between atoms: _241  and  _242
REMARK  106  A    between atoms: _242  and  _243
REMARK  107  A    between atoms: _246  and  _248
REMARK  108  A    between atoms: _248  and  _249
REMARK  109  A    between atoms: _248  and  _251
REMARK  110  A    between atoms: _251  and  _252
REMARK  111  A    between atoms: _257  and  _259
REMARK  112  A    between atoms: _259  and  _260
REMARK  113  A    between atoms: _263  and  _265
REMARK  114  A    between atoms: _265  and  _266
REMARK  115  A    between atoms: _265  and  _268
REMARK  116  A    between atoms: _268  and  _269
REMARK  117  A    between atoms: _269  and  _270
REMARK  118  A    between atoms: _272  and  _274
REMARK  119  A    between atoms: _274  and  _275
REMARK  120  A    between atoms: _274  and  _277
REMARK  121  A    between atoms: _277  and  _278
REMARK  122  A    between atoms: _288  and  _290
REMARK  123  A    between atoms: _290  and  _291
REMARK  124  A    between atoms: _290  and  _293
REMARK  125  A    between atoms: _293  and  _294
REMARK  126  A    between atoms: _297  and  _299
REMARK  127  A    between atoms: _299  and  _300
REMARK  128  A    between atoms: _299  and  _302
REMARK  129  A    between atoms: _302  and  _303
REMARK  130  A    between atoms: _303  and  _304
REMARK  131  A    between atoms: _309  and  _311
REMARK  132  A    between atoms: _311  and  _312
REMARK  133  A    between atoms: _311  and  _314
REMARK  134  A    between atoms: _314  and  _315
REMARK  135  A    between atoms: _318  and  _320
REMARK  136  A    between atoms: _320  and  _321
REMARK  137  A    between atoms: _320  and  _323
REMARK  138  A    between atoms: _323  and  _324
REMARK  139  A    between atoms: _324  and  _325
REMARK  140  A    between atoms: _330  and  _332
REMARK  141  A    between atoms: _332  and  _333
REMARK  142  A    between atoms: _332  and  _335
REMARK  143  A    between atoms: _333  and  _334
REMARK  144  A    between atoms: _333  and  _342
REMARK  145  A    between atoms: _335  and  _336
REMARK  146  A    between atoms: _342  and  _344
REMARK  147  A    between atoms: _344  and  _345
REMARK  148  A    between atoms: _344  and  _347
REMARK  149  A    between atoms: _349  and  _351
REMARK  150  A    between atoms: _351  and  _352
REMARK  151  A    between atoms: _351  and  _354
REMARK  152  A    between atoms: _354  and  _355
REMARK  153  A    between atoms: _355  and  _356
REMARK  154  A    between atoms: _358  and  _360
REMARK  155  A    between atoms: _360  and  _361
REMARK  156  A    between atoms: _360  and  _363
REMARK  157  A    between atoms: _363  and  _364
REMARK  158  A    between atoms: _369  and  _371
REMARK  159  A    between atoms: _371  and  _372
REMARK  160  A    between atoms: _374  and  _376
REMARK  161  A    between atoms: _376  and  _377
REMARK  162  A    between atoms: _376  and  _379
REMARK  163  A    between atoms: _382  and  _384
REMARK  164  A    between atoms: _384  and  _385
REMARK  165  A    between atoms: _384  and  _387
REMARK  166  A    between atoms: _387  and  _388
REMARK  167  A    between atoms: _391  and  _393
REMARK  168  A    between atoms: _393  and  _394
REMARK  169  A    between atoms: _393  and  _396
REMARK  170  A    between atoms: _396  and  _397
REMARK  171  A    between atoms: _399  and  _401
REMARK  172  A    between atoms: _401  and  _402
REMARK  173  A    between atoms: _401  and  _404
REMARK  174  A    between atoms: _404  and  _405
REMARK  175  A    between atoms: _415  and  _417
REMARK  176  A    between atoms: _417  and  _418
REMARK  177  A    between atoms: _417  and  _420
REMARK  178  A    between atoms: _420  and  _421
REMARK  179  A    between atoms: _423  and  _425
REMARK  180  A    between atoms: _425  and  _426
REMARK  181  A    between atoms: _425  and  _428
REMARK  182  A    between atoms: _428  and  _429
REMARK  183  A    between atoms: _429  and  _430
REMARK  184  A    between atoms: _433  and  _435
REMARK  185  A    between atoms: _435  and  _436
REMARK  186  A    between atoms: _435  and  _438
REMARK  187  A    between atoms: _438  and  _439
REMARK  188  A    between atoms: _439  and  _440
REMARK  189  A    between atoms: _440  and  _441
REMARK                            x       y       z     vdW  Elec       q    Type
REMARK                         _______ _______ _______ _____ _____    ______ ____
ROOT
ATOM      1  O   HOH     1     -18.475 -35.436 -25.231  0.00  0.00    +0.000 OA
ENDROOT
TORSDOF 0
REMARK  Name = ../refined-set-2016/3t0b/3t0b_pocket.pdb
REMARK  189 active torsions:
REMARK  status: ('A' for Active; 'I' for Inactive)
REMARK    1  A    between atoms: _1  and  _3
REMARK    2  A    between atoms: _3  and  _4
REMARK    3  A    between atoms: _3  and  _6
REMARK    4  A    between atoms: _6  and  _7
REMARK    5  A    between atoms: _12  and  _13
REMARK    6  A    between atoms: _15  and  _17
REMARK    7  A    between atoms: _17  and  _18
REMARK    8  A    between atoms: _17  and  _20
REMARK    9  A    between atoms: _20  and  _21
REMARK   10  A    between atoms: _24  and  _26
REMARK   11  A    between atoms: _26  and  _27
REMARK   12  A    between atoms: _26  and  _29
REMARK   13  A    between atoms: _29  and  _30
REMARK   14  A    between atoms: _35  and  _37
REMARK   15  A    between atoms: _37  and  _38
REMARK   16  A    between atoms: _37  and  _40
REMARK   17  A    between atoms: _43  and  _45
REMARK   18  A    between atoms: _45  and  _46
REMARK   19  A    between atoms: _45  and  _48
REMARK   20  A    between atoms: _48  and  _49
REMARK   21  A    between atoms: _52  and  _54
REMARK   22  A    between atoms: _54  and  _55
REMARK   23  A    between atoms: _54  and  _57
REMARK   24  A    between atoms: _57  and  _58
REMARK   25  A    between atoms: _58  and  _59
REMARK   26  A    between atoms: _64  and  _66
REMARK   27  A    between atoms: _66  and  _67
REMARK   28  A    between atoms: _66  and  _69
REMARK   29  A    between atoms: _69  and  _70
REMARK   30  A    between atoms: _73  and  _75
REMARK   31  A    between atoms: _75  and  _76
REMARK   32  A    between atoms: _75  and  _78
REMARK   33  A    between atoms: _78  and  _79
REMARK   34  A    between atoms: _79  and  _80
REMARK   35  A    between atoms: _82  and  _84
REMARK   36  A    between atoms: _84  and  _85
REMARK   37  A    between atoms: _84  and  _87
REMARK   38  A    between atoms: _87  and  _88
REMARK   39  A    between atoms: _93  and  _95
REMARK   40  A    between atoms: _95  and  _96
REMARK   41  A    between atoms: _95  and  _98
REMARK   42  A    between atoms: _98  and  _99
REMARK   43  A    between atoms: _104  and  _106
REMARK   44  A    between atoms: _106  and  _107
REMARK   45  A    between atoms: _106  and  _109
REMARK   46  A    between atoms: _109  and  _110
REMARK   47  A    between atoms: _110  and  _111
REMARK   48  A    between atoms: _111  and  _112
REMARK   49  A    between atoms: _121  and  _123
REMARK   50  A    between atoms: _123  and  _124
REMARK   51  A    between atoms: _123  and  _126
REMARK   52  A    between atoms: _126  and  _127
REMARK   53  A    between atoms: _132  and  _134
REMARK   54  A    between atoms: _134  and  _135
REMARK   55  A    between atoms: _134  and  _137
REMARK   56  A    between atoms: _137  and  _138
REMARK   57  A    between atoms: _138  and  _139
REMARK   58  A    between atoms: _142  and  _144
REMARK   59  A    between atoms: _144  and  _145
REMARK   60  A    between atoms: _144  and  _147
REMARK   61  A    between atoms: _147  and  _148
REMARK   62  A    between atoms: _149  and  MG_450
REMARK   63  A    between atoms: _153  and  _155
REMARK   64  A    between atoms: _155  and  _156
REMARK   65  A    between atoms: _155  and  _158
REMARK   66  A    between atoms: _158  and  _159
REMARK   67  A    between atoms: _159  and  _160
REMARK   68  A    between atoms: _162  and  _164
REMARK   69  A    between atoms: _164  and  _165
REMARK   70  A    between atoms: _164  and  _167
REMARK   71  A    between atoms: _167  and  _168
REMARK   72  A    between atoms: _173  and  _175
REMARK   73  A    between atoms: _175  and  _176
REMARK   74  A    between atoms: _175  and  _178
REMARK   75  A    between atoms: _178  and  _179
REMARK   76  A    between atoms: _179  and  _180
REMARK   77  A    between atoms: _183  and  _185
REMARK   78  A    between atoms: _185  and  _186
REMARK   79  A    between atoms: _185  and  _188
REMARK   80  A    between atoms: _188  and  _189
REMARK   81  A    between atoms: _189  and  _190
REMARK   82  A    between atoms: _193  and  _195
REMARK   83  A    between atoms: _195  and  _196
REMARK   84  A    between atoms: _195  and  _198
REMARK   85  A    between atoms: _198  and  _199
REMARK   86  A    between atoms: _199  and  _200
REMARK   87  A    between atoms: _202  and  _204
REMARK   88  A    between atoms: _204  and  _205
REMARK   89  A    between atoms: _204  and  _207
REMARK   90  A    between atoms: _207  and  _208
REMARK   91  A    between atoms: _213  and  _214
REMARK   92  A    between atoms: _216  and  _218
REMARK   93  A    between atoms: _218  and  _219
REMARK   94  A    between atoms: _218  and  _221
REMARK   95  A    between atoms: _221  and  _222
REMARK   96  A    between atoms: _222  and  _223
REMARK   97  A    between atoms: _223  and  _224
REMARK   98  A    between atoms: _224  and  _225
REMARK   99  A    between atoms: _229  and  _231
REMARK  100  A    between atoms: _231  and  _232
REMARK  101  A    between atoms: _231  and  _234
REMARK  102  A    between atoms: _236  and  _238
REMARK  103  A    between atoms: _238  and  _239
REMARK  104  A    between atoms: _238  and  _241
REMARK  105  A    between atoms: _241  and  _242
REMARK  106  A    between atoms: _242  and  _243
REMARK  107  A    between atoms: _246  and  _248
REMARK  108  A    between atoms: _248  and  _249
REMARK  109  A    between atoms: _248  and  _251
REMARK  110  A    between atoms: _251  and  _252
REMARK  111  A    between atoms: _257  and  _259
REMARK  112  A    between atoms: _259  and  _260
REMARK  113  A    between atoms: _263  and  _265
REMARK  114  A    between atoms: _265  and  _266
REMARK  115  A    between atoms: _265  and  _268
REMARK  116  A    between atoms: _268  and  _269
REMARK  117  A    between atoms: _269  and  _270
REMARK  118  A    between atoms: _272  and  _274
REMARK  119  A    between atoms: _274  and  _275
REMARK  120  A    between atoms: _274  and  _277
REMARK  121  A    between atoms: _277  and  _278
REMARK  122  A    between atoms: _288  and  _290
REMARK  123  A    between atoms: _290  and  _291
REMARK  124  A    between atoms: _290  and  _293
REMARK  125  A    between atoms: _293  and  _294
REMARK  126  A    between atoms: _297  and  _299
REMARK  127  A    between atoms: _299  and  _300
REMARK  128  A    between atoms: _299  and  _302
REMARK  129  A    between atoms: _302  and  _303
REMARK  130  A    between atoms: _303  and  _304
REMARK  131  A    between atoms: _309  and  _311
REMARK  132  A    between atoms: _311  and  _312
REMARK  133  A    between atoms: _311  and  _314
REMARK  134  A    between atoms: _314  and  _315
REMARK  135  A    between atoms: _318  and  _320
REMARK  136  A    between atoms: _320  and  _321
REMARK  137  A    between atoms: _320  and  _323
REMARK  138  A    between atoms: _323  and  _324
REMARK  139  A    between atoms: _324  and  _325
REMARK  140  A    between atoms: _330  and  _332
REMARK  141  A    between atoms: _332  and  _333
REMARK  142  A    between atoms: _332  and  _335
REMARK  143  A    between atoms: _333  and  _334
REMARK  144  A    between atoms: _333  and  _342
REMARK  145  A    between atoms: _335  and  _336
REMARK  146  A    between atoms: _342  and  _344
REMARK  147  A    between atoms: _344  and  _345
REMARK  148  A    between atoms: _344  and  _347
REMARK  149  A    between atoms: _349  and  _351
REMARK  150  A    between atoms: _351  and  _352
REMARK  151  A    between atoms: _351  and  _354
REMARK  152  A    between atoms: _354  and  _355
REMARK  153  A    between atoms: _355  and  _356
REMARK  154  A    between atoms: _358  and  _360
REMARK  155  A    between atoms: _360  and  _361
REMARK  156  A    between atoms: _360  and  _363
REMARK  157  A    between atoms: _363  and  _364
REMARK  158  A    between atoms: _369  and  _371
REMARK  159  A    between atoms: _371  and  _372
REMARK  160  A    between atoms: _374  and  _376
REMARK  161  A    between atoms: _376  and  _377
REMARK  162  A    between atoms: _376  and  _379
REMARK  163  A    between atoms: _382  and  _384
REMARK  164  A    between atoms: _384  and  _385
REMARK  165  A    between atoms: _384  and  _387
REMARK  166  A    between atoms: _387  and  _388
REMARK  167  A    between atoms: _391  and  _393
REMARK  168  A    between atoms: _393  and  _394
REMARK  169  A    between atoms: _393  and  _396
REMARK  170  A    between atoms: _396  and  _397
REMARK  171  A    between atoms: _399  and  _401
REMARK  172  A    between atoms: _401  and  _402
REMARK  173  A    between atoms: _401  and  _404
REMARK  174  A    between atoms: _404  and  _405
REMARK  175  A    between atoms: _415  and  _417
REMARK  176  A    between atoms: _417  and  _418
REMARK  177  A    between atoms: _417  and  _420
REMARK  178  A    between atoms: _420  and  _421
REMARK  179  A    between atoms: _423  and  _425
REMARK  180  A    between atoms: _425  and  _426
REMARK  181  A    between atoms: _425  and  _428
REMARK  182  A    between atoms: _428  and  _429
REMARK  183  A    between atoms: _429  and  _430
REMARK  184  A    between atoms: _433  and  _435
REMARK  185  A    between atoms: _435  and  _436
REMARK  186  A    between atoms: _435  and  _438
REMARK  187  A    between atoms: _438  and  _439
REMARK  188  A    between atoms: _439  and  _440
REMARK  189  A    between atoms: _440  and  _441
REMARK                            x       y       z     vdW  Elec       q    Type
REMARK                         _______ _______ _______ _____ _____    ______ ____
ROOT
ATOM      1  O   HOH     1     -24.067 -25.805 -31.470  0.00  0.00    +0.000 OA
ENDROOT
TORSDOF 0
REMARK  Name = ../refined-set-2016/3t0b/3t0b_pocket.pdb
REMARK  189 active torsions:
REMARK  status: ('A' for Active; 'I' for Inactive)
REMARK    1  A    between atoms: _1  and  _3
REMARK    2  A    between atoms: _3  and  _4
REMARK    3  A    between atoms: _3  and  _6
REMARK    4  A    between atoms: _6  and  _7
REMARK    5  A    between atoms: _12  and  _13
REMARK    6  A    between atoms: _15  and  _17
REMARK    7  A    between atoms: _17  and  _18
REMARK    8  A    between atoms: _17  and  _20
REMARK    9  A    between atoms: _20  and  _21
REMARK   10  A    between atoms: _24  and  _26
REMARK   11  A    between atoms: _26  and  _27
REMARK   12  A    between atoms: _26  and  _29
REMARK   13  A    between atoms: _29  and  _30
REMARK   14  A    between atoms: _35  and  _37
REMARK   15  A    between atoms: _37  and  _38
REMARK   16  A    between atoms: _37  and  _40
REMARK   17  A    between atoms: _43  and  _45
REMARK   18  A    between atoms: _45  and  _46
REMARK   19  A    between atoms: _45  and  _48
REMARK   20  A    between atoms: _48  and  _49
REMARK   21  A    between atoms: _52  and  _54
REMARK   22  A    between atoms: _54  and  _55
REMARK   23  A    between atoms: _54  and  _57
REMARK   24  A    between atoms: _57  and  _58
REMARK   25  A    between atoms: _58  and  _59
REMARK   26  A    between atoms: _64  and  _66
REMARK   27  A    between atoms: _66  and  _67
REMARK   28  A    between atoms: _66  and  _69
REMARK   29  A    between atoms: _69  and  _70
REMARK   30  A    between atoms: _73  and  _75
REMARK   31  A    between atoms: _75  and  _76
REMARK   32  A    between atoms: _75  and  _78
REMARK   33  A    between atoms: _78  and  _79
REMARK   34  A    between atoms: _79  and  _80
REMARK   35  A    between atoms: _82  and  _84
REMARK   36  A    between atoms: _84  and  _85
REMARK   37  A    between atoms: _84  and  _87
REMARK   38  A    between atoms: _87  and  _88
REMARK   39  A    between atoms: _93  and  _95
REMARK   40  A    between atoms: _95  and  _96
REMARK   41  A    between atoms: _95  and  _98
REMARK   42  A    between atoms: _98  and  _99
REMARK   43  A    between atoms: _104  and  _106
REMARK   44  A    between atoms: _106  and  _107
REMARK   45  A    between atoms: _106  and  _109
REMARK   46  A    between atoms: _109  and  _110
REMARK   47  A    between atoms: _110  and  _111
REMARK   48  A    between atoms: _111  and  _112
REMARK   49  A    between atoms: _121  and  _123
REMARK   50  A    between atoms: _123  and  _124
REMARK   51  A    between atoms: _123  and  _126
REMARK   52  A    between atoms: _126  and  _127
REMARK   53  A    between atoms: _132  and  _134
REMARK   54  A    between atoms: _134  and  _135
REMARK   55  A    between atoms: _134  and  _137
REMARK   56  A    between atoms: _137  and  _138
REMARK   57  A    between atoms: _138  and  _139
REMARK   58  A    between atoms: _142  and  _144
REMARK   59  A    between atoms: _144  and  _145
REMARK   60  A    between atoms: _144  and  _147
REMARK   61  A    between atoms: _147  and  _148
REMARK   62  A    between atoms: _149  and  MG_450
REMARK   63  A    between atoms: _153  and  _155
REMARK   64  A    between atoms: _155  and  _156
REMARK   65  A    between atoms: _155  and  _158
REMARK   66  A    between atoms: _158  and  _159
REMARK   67  A    between atoms: _159  and  _160
REMARK   68  A    between atoms: _162  and  _164
REMARK   69  A    between atoms: _164  and  _165
REMARK   70  A    between atoms: _164  and  _167
REMARK   71  A    between atoms: _167  and  _168
REMARK   72  A    between atoms: _173  and  _175
REMARK   73  A    between atoms: _175  and  _176
REMARK   74  A    between atoms: _175  and  _178
REMARK   75  A    between atoms: _178  and  _179
REMARK   76  A    between atoms: _179  and  _180
REMARK   77  A    between atoms: _183  and  _185
REMARK   78  A    between atoms: _185  and  _186
REMARK   79  A    between atoms: _185  and  _188
REMARK   80  A    between atoms: _188  and  _189
REMARK   81  A    between atoms: _189  and  _190
REMARK   82  A    between atoms: _193  and  _195
REMARK   83  A    between atoms: _195  and  _196
REMARK   84  A    between atoms: _195  and  _198
REMARK   85  A    between atoms: _198  and  _199
REMARK   86  A    between atoms: _199  and  _200
REMARK   87  A    between atoms: _202  and  _204
REMARK   88  A    between atoms: _204  and  _205
REMARK   89  A    between atoms: _204  and  _207
REMARK   90  A    between atoms: _207  and  _208
REMARK   91  A    between atoms: _213  and  _214
REMARK   92  A    between atoms: _216  and  _218
REMARK   93  A    between atoms: _218  and  _219
REMARK   94  A    between atoms: _218  and  _221
REMARK   95  A    between atoms: _221  and  _222
REMARK   96  A    between atoms: _222  and  _223
REMARK   97  A    between atoms: _223  and  _224
REMARK   98  A    between atoms: _224  and  _225
REMARK   99  A    between atoms: _229  and  _231
REMARK  100  A    between atoms: _231  and  _232
REMARK  101  A    between atoms: _231  and  _234
REMARK  102  A    between atoms: _236  and  _238
REMARK  103  A    between atoms: _238  and  _239
REMARK  104  A    between atoms: _238  and  _241
REMARK  105  A    between atoms: _241  and  _242
REMARK  106  A    between atoms: _242  and  _243
REMARK  107  A    between atoms: _246  and  _248
REMARK  108  A    between atoms: _248  and  _249
REMARK  109  A    between atoms: _248  and  _251
REMARK  110  A    between atoms: _251  and  _252
REMARK  111  A    between atoms: _257  and  _259
REMARK  112  A    between atoms: _259  and  _260
REMARK  113  A    between atoms: _263  and  _265
REMARK  114  A    between atoms: _265  and  _266
REMARK  115  A    between atoms: _265  and  _268
REMARK  116  A    between atoms: _268  and  _269
REMARK  117  A    between atoms: _269  and  _270
REMARK  118  A    between atoms: _272  and  _274
REMARK  119  A    between atoms: _274  and  _275
REMARK  120  A    between atoms: _274  and  _277
REMARK  121  A    between atoms: _277  and  _278
REMARK  122  A    between atoms: _288  and  _290
REMARK  123  A    between atoms: _290  and  _291
REMARK  124  A    between atoms: _290  and  _293
REMARK  125  A    between atoms: _293  and  _294
REMARK  126  A    between atoms: _297  and  _299
REMARK  127  A    between atoms: _299  and  _300
REMARK  128  A    between atoms: _299  and  _302
REMARK  129  A    between atoms: _302  and  _303
REMARK  130  A    between atoms: _303  and  _304
REMARK  131  A    between atoms: _309  and  _311
REMARK  132  A    between atoms: _311  and  _312
REMARK  133  A    between atoms: _311  and  _314
REMARK  134  A    between atoms: _314  and  _315
REMARK  135  A    between atoms: _318  and  _320
REMARK  136  A    between atoms: _320  and  _321
REMARK  137  A    between atoms: _320  and  _323
REMARK  138  A    between atoms: _323  and  _324
REMARK  139  A    between atoms: _324  and  _325
REMARK  140  A    between atoms: _330  and  _332
REMARK  141  A    between atoms: _332  and  _333
REMARK  142  A    between atoms: _332  and  _335
REMARK  143  A    between atoms: _333  and  _334
REMARK  144  A    between atoms: _333  and  _342
REMARK  145  A    between atoms: _335  and  _336
REMARK  146  A    between atoms: _342  and  _344
REMARK  147  A    between atoms: _344  and  _345
REMARK  148  A    between atoms: _344  and  _347
REMARK  149  A    between atoms: _349  and  _351
REMARK  150  A    between atoms: _351  and  _352
REMARK  151  A    between atoms: _351  and  _354
REMARK  152  A    between atoms: _354  and  _355
REMARK  153  A    between atoms: _355  and  _356
REMARK  154  A    between atoms: _358  and  _360
REMARK  155  A    between atoms: _360  and  _361
REMARK  156  A    between atoms: _360  and  _363
REMARK  157  A    between atoms: _363  and  _364
REMARK  158  A    between atoms: _369  and  _371
REMARK  159  A    between atoms: _371  and  _372
REMARK  160  A    between atoms: _374  and  _376
REMARK  161  A    between atoms: _376  and  _377
REMARK  162  A    between atoms: _376  and  _379
REMARK  163  A    between atoms: _382  and  _384
REMARK  164  A    between atoms: _384  and  _385
REMARK  165  A    between atoms: _384  and  _387
REMARK  166  A    between atoms: _387  and  _388
REMARK  167  A    between atoms: _391  and  _393
REMARK  168  A    between atoms: _393  and  _394
REMARK  169  A    between atoms: _393  and  _396
REMARK  170  A    between atoms: _396  and  _397
REMARK  171  A    between atoms: _399  and  _401
REMARK  172  A    between atoms: _401  and  _402
REMARK  173  A    between atoms: _401  and  _404
REMARK  174  A    between atoms: _404  and  _405
REMARK  175  A    between atoms: _415  and  _417
REMARK  176  A    between atoms: _417  and  _418
REMARK  177  A    between atoms: _417  and  _420
REMARK  178  A    between atoms: _420  and  _421
REMARK  179  A    between atoms: _423  and  _425
REMARK  180  A    between atoms: _425  and  _426
REMARK  181  A    between atoms: _425  and  _428
REMARK  182  A    between atoms: _428  and  _429
REMARK  183  A    between atoms: _429  and  _430
REMARK  184  A    between atoms: _433  and  _435
REMARK  185  A    between atoms: _435  and  _436
REMARK  186  A    between atoms: _435  and  _438
REMARK  187  A    between atoms: _438  and  _439
REMARK  188  A    between atoms: _439  and  _440
REMARK  189  A    between atoms: _440  and  _441
REMARK                            x       y       z     vdW  Elec       q    Type
REMARK                         _______ _______ _______ _____ _____    ______ ____
ROOT
ATOM      1  O   HOH     1      -9.356 -32.242 -30.167  0.00  0.00    +0.000 OA
ENDROOT
TORSDOF 0
REMARK  Name = ../refined-set-2016/3t0b/3t0b_pocket.pdb
REMARK  189 active torsions:
REMARK  status: ('A' for Active; 'I' for Inactive)
REMARK    1  A    between atoms: _1  and  _3
REMARK    2  A    between atoms: _3  and  _4
REMARK    3  A    between atoms: _3  and  _6
REMARK    4  A    between atoms: _6  and  _7
REMARK    5  A    between atoms: _12  and  _13
REMARK    6  A    between atoms: _15  and  _17
REMARK    7  A    between atoms: _17  and  _18
REMARK    8  A    between atoms: _17  and  _20
REMARK    9  A    between atoms: _20  and  _21
REMARK   10  A    between atoms: _24  and  _26
REMARK   11  A    between atoms: _26  and  _27
REMARK   12  A    between atoms: _26  and  _29
REMARK   13  A    between atoms: _29  and  _30
REMARK   14  A    between atoms: _35  and  _37
REMARK   15  A    between atoms: _37  and  _38
REMARK   16  A    between atoms: _37  and  _40
REMARK   17  A    between atoms: _43  and  _45
REMARK   18  A    between atoms: _45  and  _46
REMARK   19  A    between atoms: _45  and  _48
REMARK   20  A    between atoms: _48  and  _49
REMARK   21  A    between atoms: _52  and  _54
REMARK   22  A    between atoms: _54  and  _55
REMARK   23  A    between atoms: _54  and  _57
REMARK   24  A    between atoms: _57  and  _58
REMARK   25  A    between atoms: _58  and  _59
REMARK   26  A    between atoms: _64  and  _66
REMARK   27  A    between atoms: _66  and  _67
REMARK   28  A    between atoms: _66  and  _69
REMARK   29  A    between atoms: _69  and  _70
REMARK   30  A    between atoms: _73  and  _75
REMARK   31  A    between atoms: _75  and  _76
REMARK   32  A    between atoms: _75  and  _78
REMARK   33  A    between atoms: _78  and  _79
REMARK   34  A    between atoms: _79  and  _80
REMARK   35  A    between atoms: _82  and  _84
REMARK   36  A    between atoms: _84  and  _85
REMARK   37  A    between atoms: _84  and  _87
REMARK   38  A    between atoms: _87  and  _88
REMARK   39  A    between atoms: _93  and  _95
REMARK   40  A    between atoms: _95  and  _96
REMARK   41  A    between atoms: _95  and  _98
REMARK   42  A    between atoms: _98  and  _99
REMARK   43  A    between atoms: _104  and  _106
REMARK   44  A    between atoms: _106  and  _107
REMARK   45  A    between atoms: _106  and  _109
REMARK   46  A    between atoms: _109  and  _110
REMARK   47  A    between atoms: _110  and  _111
REMARK   48  A    between atoms: _111  and  _112
REMARK   49  A    between atoms: _121  and  _123
REMARK   50  A    between atoms: _123  and  _124
REMARK   51  A    between atoms: _123  and  _126
REMARK   52  A    between atoms: _126  and  _127
REMARK   53  A    between atoms: _132  and  _134
REMARK   54  A    between atoms: _134  and  _135
REMARK   55  A    between atoms: _134  and  _137
REMARK   56  A    between atoms: _137  and  _138
REMARK   57  A    between atoms: _138  and  _139
REMARK   58  A    between atoms: _142  and  _144
REMARK   59  A    between atoms: _144  and  _145
REMARK   60  A    between atoms: _144  and  _147
REMARK   61  A    between atoms: _147  and  _148
REMARK   62  A    between atoms: _149  and  MG_450
REMARK   63  A    between atoms: _153  and  _155
REMARK   64  A    between atoms: _155  and  _156
REMARK   65  A    between atoms: _155  and  _158
REMARK   66  A    between atoms: _158  and  _159
REMARK   67  A    between atoms: _159  and  _160
REMARK   68  A    between atoms: _162  and  _164
REMARK   69  A    between atoms: _164  and  _165
REMARK   70  A    between atoms: _164  and  _167
REMARK   71  A    between atoms: _167  and  _168
REMARK   72  A    between atoms: _173  and  _175
REMARK   73  A    between atoms: _175  and  _176
REMARK   74  A    between atoms: _175  and  _178
REMARK   75  A    between atoms: _178  and  _179
REMARK   76  A    between atoms: _179  and  _180
REMARK   77  A    between atoms: _183  and  _185
REMARK   78  A    between atoms: _185  and  _186
REMARK   79  A    between atoms: _185  and  _188
REMARK   80  A    between atoms: _188  and  _189
REMARK   81  A    between atoms: _189  and  _190
REMARK   82  A    between atoms: _193  and  _195
REMARK   83  A    between atoms: _195  and  _196
REMARK   84  A    between atoms: _195  and  _198
REMARK   85  A    between atoms: _198  and  _199
REMARK   86  A    between atoms: _199  and  _200
REMARK   87  A    between atoms: _202  and  _204
REMARK   88  A    between atoms: _204  and  _205
REMARK   89  A    between atoms: _204  and  _207
REMARK   90  A    between atoms: _207  and  _208
REMARK   91  A    between atoms: _213  and  _214
REMARK   92  A    between atoms: _216  and  _218
REMARK   93  A    between atoms: _218  and  _219
REMARK   94  A    between atoms: _218  and  _221
REMARK   95  A    between atoms: _221  and  _222
REMARK   96  A    between atoms: _222  and  _223
REMARK   97  A    between atoms: _223  and  _224
REMARK   98  A    between atoms: _224  and  _225
REMARK   99  A    between atoms: _229  and  _231
REMARK  100  A    between atoms: _231  and  _232
REMARK  101  A    between atoms: _231  and  _234
REMARK  102  A    between atoms: _236  and  _238
REMARK  103  A    between atoms: _238  and  _239
REMARK  104  A    between atoms: _238  and  _241
REMARK  105  A    between atoms: _241  and  _242
REMARK  106  A    between atoms: _242  and  _243
REMARK  107  A    between atoms: _246  and  _248
REMARK  108  A    between atoms: _248  and  _249
REMARK  109  A    between atoms: _248  and  _251
REMARK  110  A    between atoms: _251  and  _252
REMARK  111  A    between atoms: _257  and  _259
REMARK  112  A    between atoms: _259  and  _260
REMARK  113  A    between atoms: _263  and  _265
REMARK  114  A    between atoms: _265  and  _266
REMARK  115  A    between atoms: _265  and  _268
REMARK  116  A    between atoms: _268  and  _269
REMARK  117  A    between atoms: _269  and  _270
REMARK  118  A    between atoms: _272  and  _274
REMARK  119  A    between atoms: _274  and  _275
REMARK  120  A    between atoms: _274  and  _277
REMARK  121  A    between atoms: _277  and  _278
REMARK  122  A    between atoms: _288  and  _290
REMARK  123  A    between atoms: _290  and  _291
REMARK  124  A    between atoms: _290  and  _293
REMARK  125  A    between atoms: _293  and  _294
REMARK  126  A    between atoms: _297  and  _299
REMARK  127  A    between atoms: _299  and  _300
REMARK  128  A    between atoms: _299  and  _302
REMARK  129  A    between atoms: _302  and  _303
REMARK  130  A    between atoms: _303  and  _304
REMARK  131  A    between atoms: _309  and  _311
REMARK  132  A    between atoms: _311  and  _312
REMARK  133  A    between atoms: _311  and  _314
REMARK  134  A    between atoms: _314  and  _315
REMARK  135  A    between atoms: _318  and  _320
REMARK  136  A    between atoms: _320  and  _321
REMARK  137  A    between atoms: _320  and  _323
REMARK  138  A    between atoms: _323  and  _324
REMARK  139  A    between atoms: _324  and  _325
REMARK  140  A    between atoms: _330  and  _332
REMARK  141  A    between atoms: _332  and  _333
REMARK  142  A    between atoms: _332  and  _335
REMARK  143  A    between atoms: _333  and  _334
REMARK  144  A    between atoms: _333  and  _342
REMARK  145  A    between atoms: _335  and  _336
REMARK  146  A    between atoms: _342  and  _344
REMARK  147  A    between atoms: _344  and  _345
REMARK  148  A    between atoms: _344  and  _347
REMARK  149  A    between atoms: _349  and  _351
REMARK  150  A    between atoms: _351  and  _352
REMARK  151  A    between atoms: _351  and  _354
REMARK  152  A    between atoms: _354  and  _355
REMARK  153  A    between atoms: _355  and  _356
REMARK  154  A    between atoms: _358  and  _360
REMARK  155  A    between atoms: _360  and  _361
REMARK  156  A    between atoms: _360  and  _363
REMARK  157  A    between atoms: _363  and  _364
REMARK  158  A    between atoms: _369  and  _371
REMARK  159  A    between atoms: _371  and  _372
REMARK  160  A    between atoms: _374  and  _376
REMARK  161  A    between atoms: _376  and  _377
REMARK  162  A    between atoms: _376  and  _379
REMARK  163  A    between atoms: _382  and  _384
REMARK  164  A    between atoms: _384  and  _385
REMARK  165  A    between atoms: _384  and  _387
REMARK  166  A    between atoms: _387  and  _388
REMARK  167  A    between atoms: _391  and  _393
REMARK  168  A    between atoms: _393  and  _394
REMARK  169  A    between atoms: _393  and  _396
REMARK  170  A    between atoms: _396  and  _397
REMARK  171  A    between atoms: _399  and  _401
REMARK  172  A    between atoms: _401  and  _402
REMARK  173  A    between atoms: _401  and  _404
REMARK  174  A    between atoms: _404  and  _405
REMARK  175  A    between atoms: _415  and  _417
REMARK  176  A    between atoms: _417  and  _418
REMARK  177  A    between atoms: _417  and  _420
REMARK  178  A    between atoms: _420  and  _421
REMARK  179  A    between atoms: _423  and  _425
REMARK  180  A    between atoms: _425  and  _426
REMARK  181  A    between atoms: _425  and  _428
REMARK  182  A    between atoms: _428  and  _429
REMARK  183  A    between atoms: _429  and  _430
REMARK  184  A    between atoms: _433  and  _435
REMARK  185  A    between atoms: _435  and  _436
REMARK  186  A    between atoms: _435  and  _438
REMARK  187  A    between atoms: _438  and  _439
REMARK  188  A    between atoms: _439  and  _440
REMARK  189  A    between atoms: _440  and  _441
REMARK                            x       y       z     vdW  Elec       q    Type
REMARK                         _______ _______ _______ _____ _____    ______ ____
ROOT
ATOM      1  O   HOH     1     -13.941 -25.531 -20.729  0.00  0.00    +0.000 OA
ENDROOT
TORSDOF 0
REMARK  Name = ../refined-set-2016/3t0b/3t0b_pocket.pdb
REMARK  189 active torsions:
REMARK  status: ('A' for Active; 'I' for Inactive)
REMARK    1  A    between atoms: _1  and  _3
REMARK    2  A    between atoms: _3  and  _4
REMARK    3  A    between atoms: _3  and  _6
REMARK    4  A    between atoms: _6  and  _7
REMARK    5  A    between atoms: _12  and  _13
REMARK    6  A    between atoms: _15  and  _17
REMARK    7  A    between atoms: _17  and  _18
REMARK    8  A    between atoms: _17  and  _20
REMARK    9  A    between atoms: _20  and  _21
REMARK   10  A    between atoms: _24  and  _26
REMARK   11  A    between atoms: _26  and  _27
REMARK   12  A    between atoms: _26  and  _29
REMARK   13  A    between atoms: _29  and  _30
REMARK   14  A    between atoms: _35  and  _37
REMARK   15  A    between atoms: _37  and  _38
REMARK   16  A    between atoms: _37  and  _40
REMARK   17  A    between atoms: _43  and  _45
REMARK   18  A    between atoms: _45  and  _46
REMARK   19  A    between atoms: _45  and  _48
REMARK   20  A    between atoms: _48  and  _49
REMARK   21  A    between atoms: _52  and  _54
REMARK   22  A    between atoms: _54  and  _55
REMARK   23  A    between atoms: _54  and  _57
REMARK   24  A    between atoms: _57  and  _58
REMARK   25  A    between atoms: _58  and  _59
REMARK   26  A    between atoms: _64  and  _66
REMARK   27  A    between atoms: _66  and  _67
REMARK   28  A    between atoms: _66  and  _69
REMARK   29  A    between atoms: _69  and  _70
REMARK   30  A    between atoms: _73  and  _75
REMARK   31  A    between atoms: _75  and  _76
REMARK   32  A    between atoms: _75  and  _78
REMARK   33  A    between atoms: _78  and  _79
REMARK   34  A    between atoms: _79  and  _80
REMARK   35  A    between atoms: _82  and  _84
REMARK   36  A    between atoms: _84  and  _85
REMARK   37  A    between atoms: _84  and  _87
REMARK   38  A    between atoms: _87  and  _88
REMARK   39  A    between atoms: _93  and  _95
REMARK   40  A    between atoms: _95  and  _96
REMARK   41  A    between atoms: _95  and  _98
REMARK   42  A    between atoms: _98  and  _99
REMARK   43  A    between atoms: _104  and  _106
REMARK   44  A    between atoms: _106  and  _107
REMARK   45  A    between atoms: _106  and  _109
REMARK   46  A    between atoms: _109  and  _110
REMARK   47  A    between atoms: _110  and  _111
REMARK   48  A    between atoms: _111  and  _112
REMARK   49  A    between atoms: _121  and  _123
REMARK   50  A    between atoms: _123  and  _124
REMARK   51  A    between atoms: _123  and  _126
REMARK   52  A    between atoms: _126  and  _127
REMARK   53  A    between atoms: _132  and  _134
REMARK   54  A    between atoms: _134  and  _135
REMARK   55  A    between atoms: _134  and  _137
REMARK   56  A    between atoms: _137  and  _138
REMARK   57  A    between atoms: _138  and  _139
REMARK   58  A    between atoms: _142  and  _144
REMARK   59  A    between atoms: _144  and  _145
REMARK   60  A    between atoms: _144  and  _147
REMARK   61  A    between atoms: _147  and  _148
REMARK   62  A    between atoms: _149  and  MG_450
REMARK   63  A    between atoms: _153  and  _155
REMARK   64  A    between atoms: _155  and  _156
REMARK   65  A    between atoms: _155  and  _158
REMARK   66  A    between atoms: _158  and  _159
REMARK   67  A    between atoms: _159  and  _160
REMARK   68  A    between atoms: _162  and  _164
REMARK   69  A    between atoms: _164  and  _165
REMARK   70  A    between atoms: _164  and  _167
REMARK   71  A    between atoms: _167  and  _168
REMARK   72  A    between atoms: _173  and  _175
REMARK   73  A    between atoms: _175  and  _176
REMARK   74  A    between atoms: _175  and  _178
REMARK   75  A    between atoms: _178  and  _179
REMARK   76  A    between atoms: _179  and  _180
REMARK   77  A    between atoms: _183  and  _185
REMARK   78  A    between atoms: _185  and  _186
REMARK   79  A    between atoms: _185  and  _188
REMARK   80  A    between atoms: _188  and  _189
REMARK   81  A    between atoms: _189  and  _190
REMARK   82  A    between atoms: _193  and  _195
REMARK   83  A    between atoms: _195  and  _196
REMARK   84  A    between atoms: _195  and  _198
REMARK   85  A    between atoms: _198  and  _199
REMARK   86  A    between atoms: _199  and  _200
REMARK   87  A    between atoms: _202  and  _204
REMARK   88  A    between atoms: _204  and  _205
REMARK   89  A    between atoms: _204  and  _207
REMARK   90  A    between atoms: _207  and  _208
REMARK   91  A    between atoms: _213  and  _214
REMARK   92  A    between atoms: _216  and  _218
REMARK   93  A    between atoms: _218  and  _219
REMARK   94  A    between atoms: _218  and  _221
REMARK   95  A    between atoms: _221  and  _222
REMARK   96  A    between atoms: _222  and  _223
REMARK   97  A    between atoms: _223  and  _224
REMARK   98  A    between atoms: _224  and  _225
REMARK   99  A    between atoms: _229  and  _231
REMARK  100  A    between atoms: _231  and  _232
REMARK  101  A    between atoms: _231  and  _234
REMARK  102  A    between atoms: _236  and  _238
REMARK  103  A    between atoms: _238  and  _239
REMARK  104  A    between atoms: _238  and  _241
REMARK  105  A    between atoms: _241  and  _242
REMARK  106  A    between atoms: _242  and  _243
REMARK  107  A    between atoms: _246  and  _248
REMARK  108  A    between atoms: _248  and  _249
REMARK  109  A    between atoms: _248  and  _251
REMARK  110  A    between atoms: _251  and  _252
REMARK  111  A    between atoms: _257  and  _259
REMARK  112  A    between atoms: _259  and  _260
REMARK  113  A    between atoms: _263  and  _265
REMARK  114  A    between atoms: _265  and  _266
REMARK  115  A    between atoms: _265  and  _268
REMARK  116  A    between atoms: _268  and  _269
REMARK  117  A    between atoms: _269  and  _270
REMARK  118  A    between atoms: _272  and  _274
REMARK  119  A    between atoms: _274  and  _275
REMARK  120  A    between atoms: _274  and  _277
REMARK  121  A    between atoms: _277  and  _278
REMARK  122  A    between atoms: _288  and  _290
REMARK  123  A    between atoms: _290  and  _291
REMARK  124  A    between atoms: _290  and  _293
REMARK  125  A    between atoms: _293  and  _294
REMARK  126  A    between atoms: _297  and  _299
REMARK  127  A    between atoms: _299  and  _300
REMARK  128  A    between atoms: _299  and  _302
REMARK  129  A    between atoms: _302  and  _303
REMARK  130  A    between atoms: _303  and  _304
REMARK  131  A    between atoms: _309  and  _311
REMARK  132  A    between atoms: _311  and  _312
REMARK  133  A    between atoms: _311  and  _314
REMARK  134  A    between atoms: _314  and  _315
REMARK  135  A    between atoms: _318  and  _320
REMARK  136  A    between atoms: _320  and  _321
REMARK  137  A    between atoms: _320  and  _323
REMARK  138  A    between atoms: _323  and  _324
REMARK  139  A    between atoms: _324  and  _325
REMARK  140  A    between atoms: _330  and  _332
REMARK  141  A    between atoms: _332  and  _333
REMARK  142  A    between atoms: _332  and  _335
REMARK  143  A    between atoms: _333  and  _334
REMARK  144  A    between atoms: _333  and  _342
REMARK  145  A    between atoms: _335  and  _336
REMARK  146  A    between atoms: _342  and  _344
REMARK  147  A    between atoms: _344  and  _345
REMARK  148  A    between atoms: _344  and  _347
REMARK  149  A    between atoms: _349  and  _351
REMARK  150  A    between atoms: _351  and  _352
REMARK  151  A    between atoms: _351  and  _354
REMARK  152  A    between atoms: _354  and  _355
REMARK  153  A    between atoms: _355  and  _356
REMARK  154  A    between atoms: _358  and  _360
REMARK  155  A    between atoms: _360  and  _361
REMARK  156  A    between atoms: _360  and  _363
REMARK  157  A    between atoms: _363  and  _364
REMARK  158  A    between atoms: _369  and  _371
REMARK  159  A    between atoms: _371  and  _372
REMARK  160  A    between atoms: _374  and  _376
REMARK  161  A    between atoms: _376  and  _377
REMARK  162  A    between atoms: _376  and  _379
REMARK  163  A    between atoms: _382  and  _384
REMARK  164  A    between atoms: _384  and  _385
REMARK  165  A    between atoms: _384  and  _387
REMARK  166  A    between atoms: _387  and  _388
REMARK  167  A    between atoms: _391  and  _393
REMARK  168  A    between atoms: _393  and  _394
REMARK  169  A    between atoms: _393  and  _396
REMARK  170  A    between atoms: _396  and  _397
REMARK  171  A    between atoms: _399  and  _401
REMARK  172  A    between atoms: _401  and  _402
REMARK  173  A    between atoms: _401  and  _404
REMARK  174  A    between atoms: _404  and  _405
REMARK  175  A    between atoms: _415  and  _417
REMARK  176  A    between atoms: _417  and  _418
REMARK  177  A    between atoms: _417  and  _420
REMARK  178  A    between atoms: _420  and  _421
REMARK  179  A    between atoms: _423  and  _425
REMARK  180  A    between atoms: _425  and  _426
REMARK  181  A    between atoms: _425  and  _428
REMARK  182  A    between atoms: _428  and  _429
REMARK  183  A    between atoms: _429  and  _430
REMARK  184  A    between atoms: _433  and  _435
REMARK  185  A    between atoms: _435  and  _436
REMARK  186  A    between atoms: _435  and  _438
REMARK  187  A    between atoms: _438  and  _439
REMARK  188  A    between atoms: _439  and  _440
REMARK  189  A    between atoms: _440  and  _441
REMARK                            x       y       z     vdW  Elec       q    Type
REMARK                         _______ _______ _______ _____ _____    ______ ____
ROOT
ATOM      1  O   HOH     1     -16.691 -26.401 -21.506  0.00  0.00    +0.000 OA
ENDROOT
TORSDOF 0
REMARK  Name = ../refined-set-2016/3t0b/3t0b_pocket.pdb
REMARK  189 active torsions:
REMARK  status: ('A' for Active; 'I' for Inactive)
REMARK    1  A    between atoms: _1  and  _3
REMARK    2  A    between atoms: _3  and  _4
REMARK    3  A    between atoms: _3  and  _6
REMARK    4  A    between atoms: _6  and  _7
REMARK    5  A    between atoms: _12  and  _13
REMARK    6  A    between atoms: _15  and  _17
REMARK    7  A    between atoms: _17  and  _18
REMARK    8  A    between atoms: _17  and  _20
REMARK    9  A    between atoms: _20  and  _21
REMARK   10  A    between atoms: _24  and  _26
REMARK   11  A    between atoms: _26  and  _27
REMARK   12  A    between atoms: _26  and  _29
REMARK   13  A    between atoms: _29  and  _30
REMARK   14  A    between atoms: _35  and  _37
REMARK   15  A    between atoms: _37  and  _38
REMARK   16  A    between atoms: _37  and  _40
REMARK   17  A    between atoms: _43  and  _45
REMARK   18  A    between atoms: _45  and  _46
REMARK   19  A    between atoms: _45  and  _48
REMARK   20  A    between atoms: _48  and  _49
REMARK   21  A    between atoms: _52  and  _54
REMARK   22  A    between atoms: _54  and  _55
REMARK   23  A    between atoms: _54  and  _57
REMARK   24  A    between atoms: _57  and  _58
REMARK   25  A    between atoms: _58  and  _59
REMARK   26  A    between atoms: _64  and  _66
REMARK   27  A    between atoms: _66  and  _67
REMARK   28  A    between atoms: _66  and  _69
REMARK   29  A    between atoms: _69  and  _70
REMARK   30  A    between atoms: _73  and  _75
REMARK   31  A    between atoms: _75  and  _76
REMARK   32  A    between atoms: _75  and  _78
REMARK   33  A    between atoms: _78  and  _79
REMARK   34  A    between atoms: _79  and  _80
REMARK   35  A    between atoms: _82  and  _84
REMARK   36  A    between atoms: _84  and  _85
REMARK   37  A    between atoms: _84  and  _87
REMARK   38  A    between atoms: _87  and  _88
REMARK   39  A    between atoms: _93  and  _95
REMARK   40  A    between atoms: _95  and  _96
REMARK   41  A    between atoms: _95  and  _98
REMARK   42  A    between atoms: _98  and  _99
REMARK   43  A    between atoms: _104  and  _106
REMARK   44  A    between atoms: _106  and  _107
REMARK   45  A    between atoms: _106  and  _109
REMARK   46  A    between atoms: _109  and  _110
REMARK   47  A    between atoms: _110  and  _111
REMARK   48  A    between atoms: _111  and  _112
REMARK   49  A    between atoms: _121  and  _123
REMARK   50  A    between atoms: _123  and  _124
REMARK   51  A    between atoms: _123  and  _126
REMARK   52  A    between atoms: _126  and  _127
REMARK   53  A    between atoms: _132  and  _134
REMARK   54  A    between atoms: _134  and  _135
REMARK   55  A    between atoms: _134  and  _137
REMARK   56  A    between atoms: _137  and  _138
REMARK   57  A    between atoms: _138  and  _139
REMARK   58  A    between atoms: _142  and  _144
REMARK   59  A    between atoms: _144  and  _145
REMARK   60  A    between atoms: _144  and  _147
REMARK   61  A    between atoms: _147  and  _148
REMARK   62  A    between atoms: _149  and  MG_450
REMARK   63  A    between atoms: _153  and  _155
REMARK   64  A    between atoms: _155  and  _156
REMARK   65  A    between atoms: _155  and  _158
REMARK   66  A    between atoms: _158  and  _159
REMARK   67  A    between atoms: _159  and  _160
REMARK   68  A    between atoms: _162  and  _164
REMARK   69  A    between atoms: _164  and  _165
REMARK   70  A    between atoms: _164  and  _167
REMARK   71  A    between atoms: _167  and  _168
REMARK   72  A    between atoms: _173  and  _175
REMARK   73  A    between atoms: _175  and  _176
REMARK   74  A    between atoms: _175  and  _178
REMARK   75  A    between atoms: _178  and  _179
REMARK   76  A    between atoms: _179  and  _180
REMARK   77  A    between atoms: _183  and  _185
REMARK   78  A    between atoms: _185  and  _186
REMARK   79  A    between atoms: _185  and  _188
REMARK   80  A    between atoms: _188  and  _189
REMARK   81  A    between atoms: _189  and  _190
REMARK   82  A    between atoms: _193  and  _195
REMARK   83  A    between atoms: _195  and  _196
REMARK   84  A    between atoms: _195  and  _198
REMARK   85  A    between atoms: _198  and  _199
REMARK   86  A    between atoms: _199  and  _200
REMARK   87  A    between atoms: _202  and  _204
REMARK   88  A    between atoms: _204  and  _205
REMARK   89  A    between atoms: _204  and  _207
REMARK   90  A    between atoms: _207  and  _208
REMARK   91  A    between atoms: _213  and  _214
REMARK   92  A    between atoms: _216  and  _218
REMARK   93  A    between atoms: _218  and  _219
REMARK   94  A    between atoms: _218  and  _221
REMARK   95  A    between atoms: _221  and  _222
REMARK   96  A    between atoms: _222  and  _223
REMARK   97  A    between atoms: _223  and  _224
REMARK   98  A    between atoms: _224  and  _225
REMARK   99  A    between atoms: _229  and  _231
REMARK  100  A    between atoms: _231  and  _232
REMARK  101  A    between atoms: _231  and  _234
REMARK  102  A    between atoms: _236  and  _238
REMARK  103  A    between atoms: _238  and  _239
REMARK  104  A    between atoms: _238  and  _241
REMARK  105  A    between atoms: _241  and  _242
REMARK  106  A    between atoms: _242  and  _243
REMARK  107  A    between atoms: _246  and  _248
REMARK  108  A    between atoms: _248  and  _249
REMARK  109  A    between atoms: _248  and  _251
REMARK  110  A    between atoms: _251  and  _252
REMARK  111  A    between atoms: _257  and  _259
REMARK  112  A    between atoms: _259  and  _260
REMARK  113  A    between atoms: _263  and  _265
REMARK  114  A    between atoms: _265  and  _266
REMARK  115  A    between atoms: _265  and  _268
REMARK  116  A    between atoms: _268  and  _269
REMARK  117  A    between atoms: _269  and  _270
REMARK  118  A    between atoms: _272  and  _274
REMARK  119  A    between atoms: _274  and  _275
REMARK  120  A    between atoms: _274  and  _277
REMARK  121  A    between atoms: _277  and  _278
REMARK  122  A    between atoms: _288  and  _290
REMARK  123  A    between atoms: _290  and  _291
REMARK  124  A    between atoms: _290  and  _293
REMARK  125  A    between atoms: _293  and  _294
REMARK  126  A    between atoms: _297  and  _299
REMARK  127  A    between atoms: _299  and  _300
REMARK  128  A    between atoms: _299  and  _302
REMARK  129  A    between atoms: _302  and  _303
REMARK  130  A    between atoms: _303  and  _304
REMARK  131  A    between atoms: _309  and  _311
REMARK  132  A    between atoms: _311  and  _312
REMARK  133  A    between atoms: _311  and  _314
REMARK  134  A    between atoms: _314  and  _315
REMARK  135  A    between atoms: _318  and  _320
REMARK  136  A    between atoms: _320  and  _321
REMARK  137  A    between atoms: _320  and  _323
REMARK  138  A    between atoms: _323  and  _324
REMARK  139  A    between atoms: _324  and  _325
REMARK  140  A    between atoms: _330  and  _332
REMARK  141  A    between atoms: _332  and  _333
REMARK  142  A    between atoms: _332  and  _335
REMARK  143  A    between atoms: _333  and  _334
REMARK  144  A    between atoms: _333  and  _342
REMARK  145  A    between atoms: _335  and  _336
REMARK  146  A    between atoms: _342  and  _344
REMARK  147  A    between atoms: _344  and  _345
REMARK  148  A    between atoms: _344  and  _347
REMARK  149  A    between atoms: _349  and  _351
REMARK  150  A    between atoms: _351  and  _352
REMARK  151  A    between atoms: _351  and  _354
REMARK  152  A    between atoms: _354  and  _355
REMARK  153  A    between atoms: _355  and  _356
REMARK  154  A    between atoms: _358  and  _360
REMARK  155  A    between atoms: _360  and  _361
REMARK  156  A    between atoms: _360  and  _363
REMARK  157  A    between atoms: _363  and  _364
REMARK  158  A    between atoms: _369  and  _371
REMARK  159  A    between atoms: _371  and  _372
REMARK  160  A    between atoms: _374  and  _376
REMARK  161  A    between atoms: _376  and  _377
REMARK  162  A    between atoms: _376  and  _379
REMARK  163  A    between atoms: _382  and  _384
REMARK  164  A    between atoms: _384  and  _385
REMARK  165  A    between atoms: _384  and  _387
REMARK  166  A    between atoms: _387  and  _388
REMARK  167  A    between atoms: _391  and  _393
REMARK  168  A    between atoms: _393  and  _394
REMARK  169  A    between atoms: _393  and  _396
REMARK  170  A    between atoms: _396  and  _397
REMARK  171  A    between atoms: _399  and  _401
REMARK  172  A    between atoms: _401  and  _402
REMARK  173  A    between atoms: _401  and  _404
REMARK  174  A    between atoms: _404  and  _405
REMARK  175  A    between atoms: _415  and  _417
REMARK  176  A    between atoms: _417  and  _418
REMARK  177  A    between atoms: _417  and  _420
REMARK  178  A    between atoms: _420  and  _421
REMARK  179  A    between atoms: _423  and  _425
REMARK  180  A    between atoms: _425  and  _426
REMARK  181  A    between atoms: _425  and  _428
REMARK  182  A    between atoms: _428  and  _429
REMARK  183  A    between atoms: _429  and  _430
REMARK  184  A    between atoms: _433  and  _435
REMARK  185  A    between atoms: _435  and  _436
REMARK  186  A    between atoms: _435  and  _438
REMARK  187  A    between atoms: _438  and  _439
REMARK  188  A    between atoms: _439  and  _440
REMARK  189  A    between atoms: _440  and  _441
REMARK                            x       y       z     vdW  Elec       q    Type
REMARK                         _______ _______ _______ _____ _____    ______ ____
ROOT
ATOM      1  O   HOH     1     -17.836 -21.728 -24.995  0.00  0.00    +0.000 OA
ENDROOT
TORSDOF 0
REMARK  Name = ../refined-set-2016/3t0b/3t0b_pocket.pdb
REMARK  189 active torsions:
REMARK  status: ('A' for Active; 'I' for Inactive)
REMARK    1  A    between atoms: _1  and  _3
REMARK    2  A    between atoms: _3  and  _4
REMARK    3  A    between atoms: _3  and  _6
REMARK    4  A    between atoms: _6  and  _7
REMARK    5  A    between atoms: _12  and  _13
REMARK    6  A    between atoms: _15  and  _17
REMARK    7  A    between atoms: _17  and  _18
REMARK    8  A    between atoms: _17  and  _20
REMARK    9  A    between atoms: _20  and  _21
REMARK   10  A    between atoms: _24  and  _26
REMARK   11  A    between atoms: _26  and  _27
REMARK   12  A    between atoms: _26  and  _29
REMARK   13  A    between atoms: _29  and  _30
REMARK   14  A    between atoms: _35  and  _37
REMARK   15  A    between atoms: _37  and  _38
REMARK   16  A    between atoms: _37  and  _40
REMARK   17  A    between atoms: _43  and  _45
REMARK   18  A    between atoms: _45  and  _46
REMARK   19  A    between atoms: _45  and  _48
REMARK   20  A    between atoms: _48  and  _49
REMARK   21  A    between atoms: _52  and  _54
REMARK   22  A    between atoms: _54  and  _55
REMARK   23  A    between atoms: _54  and  _57
REMARK   24  A    between atoms: _57  and  _58
REMARK   25  A    between atoms: _58  and  _59
REMARK   26  A    between atoms: _64  and  _66
REMARK   27  A    between atoms: _66  and  _67
REMARK   28  A    between atoms: _66  and  _69
REMARK   29  A    between atoms: _69  and  _70
REMARK   30  A    between atoms: _73  and  _75
REMARK   31  A    between atoms: _75  and  _76
REMARK   32  A    between atoms: _75  and  _78
REMARK   33  A    between atoms: _78  and  _79
REMARK   34  A    between atoms: _79  and  _80
REMARK   35  A    between atoms: _82  and  _84
REMARK   36  A    between atoms: _84  and  _85
REMARK   37  A    between atoms: _84  and  _87
REMARK   38  A    between atoms: _87  and  _88
REMARK   39  A    between atoms: _93  and  _95
REMARK   40  A    between atoms: _95  and  _96
REMARK   41  A    between atoms: _95  and  _98
REMARK   42  A    between atoms: _98  and  _99
REMARK   43  A    between atoms: _104  and  _106
REMARK   44  A    between atoms: _106  and  _107
REMARK   45  A    between atoms: _106  and  _109
REMARK   46  A    between atoms: _109  and  _110
REMARK   47  A    between atoms: _110  and  _111
REMARK   48  A    between atoms: _111  and  _112
REMARK   49  A    between atoms: _121  and  _123
REMARK   50  A    between atoms: _123  and  _124
REMARK   51  A    between atoms: _123  and  _126
REMARK   52  A    between atoms: _126  and  _127
REMARK   53  A    between atoms: _132  and  _134
REMARK   54  A    between atoms: _134  and  _135
REMARK   55  A    between atoms: _134  and  _137
REMARK   56  A    between atoms: _137  and  _138
REMARK   57  A    between atoms: _138  and  _139
REMARK   58  A    between atoms: _142  and  _144
REMARK   59  A    between atoms: _144  and  _145
REMARK   60  A    between atoms: _144  and  _147
REMARK   61  A    between atoms: _147  and  _148
REMARK   62  A    between atoms: _149  and  MG_450
REMARK   63  A    between atoms: _153  and  _155
REMARK   64  A    between atoms: _155  and  _156
REMARK   65  A    between atoms: _155  and  _158
REMARK   66  A    between atoms: _158  and  _159
REMARK   67  A    between atoms: _159  and  _160
REMARK   68  A    between atoms: _162  and  _164
REMARK   69  A    between atoms: _164  and  _165
REMARK   70  A    between atoms: _164  and  _167
REMARK   71  A    between atoms: _167  and  _168
REMARK   72  A    between atoms: _173  and  _175
REMARK   73  A    between atoms: _175  and  _176
REMARK   74  A    between atoms: _175  and  _178
REMARK   75  A    between atoms: _178  and  _179
REMARK   76  A    between atoms: _179  and  _180
REMARK   77  A    between atoms: _183  and  _185
REMARK   78  A    between atoms: _185  and  _186
REMARK   79  A    between atoms: _185  and  _188
REMARK   80  A    between atoms: _188  and  _189
REMARK   81  A    between atoms: _189  and  _190
REMARK   82  A    between atoms: _193  and  _195
REMARK   83  A    between atoms: _195  and  _196
REMARK   84  A    between atoms: _195  and  _198
REMARK   85  A    between atoms: _198  and  _199
REMARK   86  A    between atoms: _199  and  _200
REMARK   87  A    between atoms: _202  and  _204
REMARK   88  A    between atoms: _204  and  _205
REMARK   89  A    between atoms: _204  and  _207
REMARK   90  A    between atoms: _207  and  _208
REMARK   91  A    between atoms: _213  and  _214
REMARK   92  A    between atoms: _216  and  _218
REMARK   93  A    between atoms: _218  and  _219
REMARK   94  A    between atoms: _218  and  _221
REMARK   95  A    between atoms: _221  and  _222
REMARK   96  A    between atoms: _222  and  _223
REMARK   97  A    between atoms: _223  and  _224
REMARK   98  A    between atoms: _224  and  _225
REMARK   99  A    between atoms: _229  and  _231
REMARK  100  A    between atoms: _231  and  _232
REMARK  101  A    between atoms: _231  and  _234
REMARK  102  A    between atoms: _236  and  _238
REMARK  103  A    between atoms: _238  and  _239
REMARK  104  A    between atoms: _238  and  _241
REMARK  105  A    between atoms: _241  and  _242
REMARK  106  A    between atoms: _242  and  _243
REMARK  107  A    between atoms: _246  and  _248
REMARK  108  A    between atoms: _248  and  _249
REMARK  109  A    between atoms: _248  and  _251
REMARK  110  A    between atoms: _251  and  _252
REMARK  111  A    between atoms: _257  and  _259
REMARK  112  A    between atoms: _259  and  _260
REMARK  113  A    between atoms: _263  and  _265
REMARK  114  A    between atoms: _265  and  _266
REMARK  115  A    between atoms: _265  and  _268
REMARK  116  A    between atoms: _268  and  _269
REMARK  117  A    between atoms: _269  and  _270
REMARK  118  A    between atoms: _272  and  _274
REMARK  119  A    between atoms: _274  and  _275
REMARK  120  A    between atoms: _274  and  _277
REMARK  121  A    between atoms: _277  and  _278
REMARK  122  A    between atoms: _288  and  _290
REMARK  123  A    between atoms: _290  and  _291
REMARK  124  A    between atoms: _290  and  _293
REMARK  125  A    between atoms: _293  and  _294
REMARK  126  A    between atoms: _297  and  _299
REMARK  127  A    between atoms: _299  and  _300
REMARK  128  A    between atoms: _299  and  _302
REMARK  129  A    between atoms: _302  and  _303
REMARK  130  A    between atoms: _303  and  _304
REMARK  131  A    between atoms: _309  and  _311
REMARK  132  A    between atoms: _311  and  _312
REMARK  133  A    between atoms: _311  and  _314
REMARK  134  A    between atoms: _314  and  _315
REMARK  135  A    between atoms: _318  and  _320
REMARK  136  A    between atoms: _320  and  _321
REMARK  137  A    between atoms: _320  and  _323
REMARK  138  A    between atoms: _323  and  _324
REMARK  139  A    between atoms: _324  and  _325
REMARK  140  A    between atoms: _330  and  _332
REMARK  141  A    between atoms: _332  and  _333
REMARK  142  A    between atoms: _332  and  _335
REMARK  143  A    between atoms: _333  and  _334
REMARK  144  A    between atoms: _333  and  _342
REMARK  145  A    between atoms: _335  and  _336
REMARK  146  A    between atoms: _342  and  _344
REMARK  147  A    between atoms: _344  and  _345
REMARK  148  A    between atoms: _344  and  _347
REMARK  149  A    between atoms: _349  and  _351
REMARK  150  A    between atoms: _351  and  _352
REMARK  151  A    between atoms: _351  and  _354
REMARK  152  A    between atoms: _354  and  _355
REMARK  153  A    between atoms: _355  and  _356
REMARK  154  A    between atoms: _358  and  _360
REMARK  155  A    between atoms: _360  and  _361
REMARK  156  A    between atoms: _360  and  _363
REMARK  157  A    between atoms: _363  and  _364
REMARK  158  A    between atoms: _369  and  _371
REMARK  159  A    between atoms: _371  and  _372
REMARK  160  A    between atoms: _374  and  _376
REMARK  161  A    between atoms: _376  and  _377
REMARK  162  A    between atoms: _376  and  _379
REMARK  163  A    between atoms: _382  and  _384
REMARK  164  A    between atoms: _384  and  _385
REMARK  165  A    between atoms: _384  and  _387
REMARK  166  A    between atoms: _387  and  _388
REMARK  167  A    between atoms: _391  and  _393
REMARK  168  A    between atoms: _393  and  _394
REMARK  169  A    between atoms: _393  and  _396
REMARK  170  A    between atoms: _396  and  _397
REMARK  171  A    between atoms: _399  and  _401
REMARK  172  A    between atoms: _401  and  _402
REMARK  173  A    between atoms: _401  and  _404
REMARK  174  A    between atoms: _404  and  _405
REMARK  175  A    between atoms: _415  and  _417
REMARK  176  A    between atoms: _417  and  _418
REMARK  177  A    between atoms: _417  and  _420
REMARK  178  A    between atoms: _420  and  _421
REMARK  179  A    between atoms: _423  and  _425
REMARK  180  A    between atoms: _425  and  _426
REMARK  181  A    between atoms: _425  and  _428
REMARK  182  A    between atoms: _428  and  _429
REMARK  183  A    between atoms: _429  and  _430
REMARK  184  A    between atoms: _433  and  _435
REMARK  185  A    between atoms: _435  and  _436
REMARK  186  A    between atoms: _435  and  _438
REMARK  187  A    between atoms: _438  and  _439
REMARK  188  A    between atoms: _439  and  _440
REMARK  189  A    between atoms: _440  and  _441
REMARK                            x       y       z     vdW  Elec       q    Type
REMARK                         _______ _______ _______ _____ _____    ______ ____
ROOT
ATOM      1  O   HOH     1     -22.818 -33.279 -30.439  0.00  0.00    +0.000 OA
ENDROOT
TORSDOF 0
REMARK  Name = ../refined-set-2016/3t0b/3t0b_pocket.pdb
REMARK  189 active torsions:
REMARK  status: ('A' for Active; 'I' for Inactive)
REMARK    1  A    between atoms: _1  and  _3
REMARK    2  A    between atoms: _3  and  _4
REMARK    3  A    between atoms: _3  and  _6
REMARK    4  A    between atoms: _6  and  _7
REMARK    5  A    between atoms: _12  and  _13
REMARK    6  A    between atoms: _15  and  _17
REMARK    7  A    between atoms: _17  and  _18
REMARK    8  A    between atoms: _17  and  _20
REMARK    9  A    between atoms: _20  and  _21
REMARK   10  A    between atoms: _24  and  _26
REMARK   11  A    between atoms: _26  and  _27
REMARK   12  A    between atoms: _26  and  _29
REMARK   13  A    between atoms: _29  and  _30
REMARK   14  A    between atoms: _35  and  _37
REMARK   15  A    between atoms: _37  and  _38
REMARK   16  A    between atoms: _37  and  _40
REMARK   17  A    between atoms: _43  and  _45
REMARK   18  A    between atoms: _45  and  _46
REMARK   19  A    between atoms: _45  and  _48
REMARK   20  A    between atoms: _48  and  _49
REMARK   21  A    between atoms: _52  and  _54
REMARK   22  A    between atoms: _54  and  _55
REMARK   23  A    between atoms: _54  and  _57
REMARK   24  A    between atoms: _57  and  _58
REMARK   25  A    between atoms: _58  and  _59
REMARK   26  A    between atoms: _64  and  _66
REMARK   27  A    between atoms: _66  and  _67
REMARK   28  A    between atoms: _66  and  _69
REMARK   29  A    between atoms: _69  and  _70
REMARK   30  A    between atoms: _73  and  _75
REMARK   31  A    between atoms: _75  and  _76
REMARK   32  A    between atoms: _75  and  _78
REMARK   33  A    between atoms: _78  and  _79
REMARK   34  A    between atoms: _79  and  _80
REMARK   35  A    between atoms: _82  and  _84
REMARK   36  A    between atoms: _84  and  _85
REMARK   37  A    between atoms: _84  and  _87
REMARK   38  A    between atoms: _87  and  _88
REMARK   39  A    between atoms: _93  and  _95
REMARK   40  A    between atoms: _95  and  _96
REMARK   41  A    between atoms: _95  and  _98
REMARK   42  A    between atoms: _98  and  _99
REMARK   43  A    between atoms: _104  and  _106
REMARK   44  A    between atoms: _106  and  _107
REMARK   45  A    between atoms: _106  and  _109
REMARK   46  A    between atoms: _109  and  _110
REMARK   47  A    between atoms: _110  and  _111
REMARK   48  A    between atoms: _111  and  _112
REMARK   49  A    between atoms: _121  and  _123
REMARK   50  A    between atoms: _123  and  _124
REMARK   51  A    between atoms: _123  and  _126
REMARK   52  A    between atoms: _126  and  _127
REMARK   53  A    between atoms: _132  and  _134
REMARK   54  A    between atoms: _134  and  _135
REMARK   55  A    between atoms: _134  and  _137
REMARK   56  A    between atoms: _137  and  _138
REMARK   57  A    between atoms: _138  and  _139
REMARK   58  A    between atoms: _142  and  _144
REMARK   59  A    between atoms: _144  and  _145
REMARK   60  A    between atoms: _144  and  _147
REMARK   61  A    between atoms: _147  and  _148
REMARK   62  A    between atoms: _149  and  MG_450
REMARK   63  A    between atoms: _153  and  _155
REMARK   64  A    between atoms: _155  and  _156
REMARK   65  A    between atoms: _155  and  _158
REMARK   66  A    between atoms: _158  and  _159
REMARK   67  A    between atoms: _159  and  _160
REMARK   68  A    between atoms: _162  and  _164
REMARK   69  A    between atoms: _164  and  _165
REMARK   70  A    between atoms: _164  and  _167
REMARK   71  A    between atoms: _167  and  _168
REMARK   72  A    between atoms: _173  and  _175
REMARK   73  A    between atoms: _175  and  _176
REMARK   74  A    between atoms: _175  and  _178
REMARK   75  A    between atoms: _178  and  _179
REMARK   76  A    between atoms: _179  and  _180
REMARK   77  A    between atoms: _183  and  _185
REMARK   78  A    between atoms: _185  and  _186
REMARK   79  A    between atoms: _185  and  _188
REMARK   80  A    between atoms: _188  and  _189
REMARK   81  A    between atoms: _189  and  _190
REMARK   82  A    between atoms: _193  and  _195
REMARK   83  A    between atoms: _195  and  _196
REMARK   84  A    between atoms: _195  and  _198
REMARK   85  A    between atoms: _198  and  _199
REMARK   86  A    between atoms: _199  and  _200
REMARK   87  A    between atoms: _202  and  _204
REMARK   88  A    between atoms: _204  and  _205
REMARK   89  A    between atoms: _204  and  _207
REMARK   90  A    between atoms: _207  and  _208
REMARK   91  A    between atoms: _213  and  _214
REMARK   92  A    between atoms: _216  and  _218
REMARK   93  A    between atoms: _218  and  _219
REMARK   94  A    between atoms: _218  and  _221
REMARK   95  A    between atoms: _221  and  _222
REMARK   96  A    between atoms: _222  and  _223
REMARK   97  A    between atoms: _223  and  _224
REMARK   98  A    between atoms: _224  and  _225
REMARK   99  A    between atoms: _229  and  _231
REMARK  100  A    between atoms: _231  and  _232
REMARK  101  A    between atoms: _231  and  _234
REMARK  102  A    between atoms: _236  and  _238
REMARK  103  A    between atoms: _238  and  _239
REMARK  104  A    between atoms: _238  and  _241
REMARK  105  A    between atoms: _241  and  _242
REMARK  106  A    between atoms: _242  and  _243
REMARK  107  A    between atoms: _246  and  _248
REMARK  108  A    between atoms: _248  and  _249
REMARK  109  A    between atoms: _248  and  _251
REMARK  110  A    between atoms: _251  and  _252
REMARK  111  A    between atoms: _257  and  _259
REMARK  112  A    between atoms: _259  and  _260
REMARK  113  A    between atoms: _263  and  _265
REMARK  114  A    between atoms: _265  and  _266
REMARK  115  A    between atoms: _265  and  _268
REMARK  116  A    between atoms: _268  and  _269
REMARK  117  A    between atoms: _269  and  _270
REMARK  118  A    between atoms: _272  and  _274
REMARK  119  A    between atoms: _274  and  _275
REMARK  120  A    between atoms: _274  and  _277
REMARK  121  A    between atoms: _277  and  _278
REMARK  122  A    between atoms: _288  and  _290
REMARK  123  A    between atoms: _290  and  _291
REMARK  124  A    between atoms: _290  and  _293
REMARK  125  A    between atoms: _293  and  _294
REMARK  126  A    between atoms: _297  and  _299
REMARK  127  A    between atoms: _299  and  _300
REMARK  128  A    between atoms: _299  and  _302
REMARK  129  A    between atoms: _302  and  _303
REMARK  130  A    between atoms: _303  and  _304
REMARK  131  A    between atoms: _309  and  _311
REMARK  132  A    between atoms: _311  and  _312
REMARK  133  A    between atoms: _311  and  _314
REMARK  134  A    between atoms: _314  and  _315
REMARK  135  A    between atoms: _318  and  _320
REMARK  136  A    between atoms: _320  and  _321
REMARK  137  A    between atoms: _320  and  _323
REMARK  138  A    between atoms: _323  and  _324
REMARK  139  A    between atoms: _324  and  _325
REMARK  140  A    between atoms: _330  and  _332
REMARK  141  A    between atoms: _332  and  _333
REMARK  142  A    between atoms: _332  and  _335
REMARK  143  A    between atoms: _333  and  _334
REMARK  144  A    between atoms: _333  and  _342
REMARK  145  A    between atoms: _335  and  _336
REMARK  146  A    between atoms: _342  and  _344
REMARK  147  A    between atoms: _344  and  _345
REMARK  148  A    between atoms: _344  and  _347
REMARK  149  A    between atoms: _349  and  _351
REMARK  150  A    between atoms: _351  and  _352
REMARK  151  A    between atoms: _351  and  _354
REMARK  152  A    between atoms: _354  and  _355
REMARK  153  A    between atoms: _355  and  _356
REMARK  154  A    between atoms: _358  and  _360
REMARK  155  A    between atoms: _360  and  _361
REMARK  156  A    between atoms: _360  and  _363
REMARK  157  A    between atoms: _363  and  _364
REMARK  158  A    between atoms: _369  and  _371
REMARK  159  A    between atoms: _371  and  _372
REMARK  160  A    between atoms: _374  and  _376
REMARK  161  A    between atoms: _376  and  _377
REMARK  162  A    between atoms: _376  and  _379
REMARK  163  A    between atoms: _382  and  _384
REMARK  164  A    between atoms: _384  and  _385
REMARK  165  A    between atoms: _384  and  _387
REMARK  166  A    between atoms: _387  and  _388
REMARK  167  A    between atoms: _391  and  _393
REMARK  168  A    between atoms: _393  and  _394
REMARK  169  A    between atoms: _393  and  _396
REMARK  170  A    between atoms: _396  and  _397
REMARK  171  A    between atoms: _399  and  _401
REMARK  172  A    between atoms: _401  and  _402
REMARK  173  A    between atoms: _401  and  _404
REMARK  174  A    between atoms: _404  and  _405
REMARK  175  A    between atoms: _415  and  _417
REMARK  176  A    between atoms: _417  and  _418
REMARK  177  A    between atoms: _417  and  _420
REMARK  178  A    between atoms: _420  and  _421
REMARK  179  A    between atoms: _423  and  _425
REMARK  180  A    between atoms: _425  and  _426
REMARK  181  A    between atoms: _425  and  _428
REMARK  182  A    between atoms: _428  and  _429
REMARK  183  A    between atoms: _429  and  _430
REMARK  184  A    between atoms: _433  and  _435
REMARK  185  A    between atoms: _435  and  _436
REMARK  186  A    between atoms: _435  and  _438
REMARK  187  A    between atoms: _438  and  _439
REMARK  188  A    between atoms: _439  and  _440
REMARK  189  A    between atoms: _440  and  _441
REMARK                            x       y       z     vdW  Elec       q    Type
REMARK                         _______ _______ _______ _____ _____    ______ ____
ROOT
ATOM      1  O   HOH     1     -17.800 -32.066 -29.029  0.00  0.00    +0.000 OA
ENDROOT
TORSDOF 0
REMARK  Name = ../refined-set-2016/3t0b/3t0b_pocket.pdb
REMARK  189 active torsions:
REMARK  status: ('A' for Active; 'I' for Inactive)
REMARK    1  A    between atoms: _1  and  _3
REMARK    2  A    between atoms: _3  and  _4
REMARK    3  A    between atoms: _3  and  _6
REMARK    4  A    between atoms: _6  and  _7
REMARK    5  A    between atoms: _12  and  _13
REMARK    6  A    between atoms: _15  and  _17
REMARK    7  A    between atoms: _17  and  _18
REMARK    8  A    between atoms: _17  and  _20
REMARK    9  A    between atoms: _20  and  _21
REMARK   10  A    between atoms: _24  and  _26
REMARK   11  A    between atoms: _26  and  _27
REMARK   12  A    between atoms: _26  and  _29
REMARK   13  A    between atoms: _29  and  _30
REMARK   14  A    between atoms: _35  and  _37
REMARK   15  A    between atoms: _37  and  _38
REMARK   16  A    between atoms: _37  and  _40
REMARK   17  A    between atoms: _43  and  _45
REMARK   18  A    between atoms: _45  and  _46
REMARK   19  A    between atoms: _45  and  _48
REMARK   20  A    between atoms: _48  and  _49
REMARK   21  A    between atoms: _52  and  _54
REMARK   22  A    between atoms: _54  and  _55
REMARK   23  A    between atoms: _54  and  _57
REMARK   24  A    between atoms: _57  and  _58
REMARK   25  A    between atoms: _58  and  _59
REMARK   26  A    between atoms: _64  and  _66
REMARK   27  A    between atoms: _66  and  _67
REMARK   28  A    between atoms: _66  and  _69
REMARK   29  A    between atoms: _69  and  _70
REMARK   30  A    between atoms: _73  and  _75
REMARK   31  A    between atoms: _75  and  _76
REMARK   32  A    between atoms: _75  and  _78
REMARK   33  A    between atoms: _78  and  _79
REMARK   34  A    between atoms: _79  and  _80
REMARK   35  A    between atoms: _82  and  _84
REMARK   36  A    between atoms: _84  and  _85
REMARK   37  A    between atoms: _84  and  _87
REMARK   38  A    between atoms: _87  and  _88
REMARK   39  A    between atoms: _93  and  _95
REMARK   40  A    between atoms: _95  and  _96
REMARK   41  A    between atoms: _95  and  _98
REMARK   42  A    between atoms: _98  and  _99
REMARK   43  A    between atoms: _104  and  _106
REMARK   44  A    between atoms: _106  and  _107
REMARK   45  A    between atoms: _106  and  _109
REMARK   46  A    between atoms: _109  and  _110
REMARK   47  A    between atoms: _110  and  _111
REMARK   48  A    between atoms: _111  and  _112
REMARK   49  A    between atoms: _121  and  _123
REMARK   50  A    between atoms: _123  and  _124
REMARK   51  A    between atoms: _123  and  _126
REMARK   52  A    between atoms: _126  and  _127
REMARK   53  A    between atoms: _132  and  _134
REMARK   54  A    between atoms: _134  and  _135
REMARK   55  A    between atoms: _134  and  _137
REMARK   56  A    between atoms: _137  and  _138
REMARK   57  A    between atoms: _138  and  _139
REMARK   58  A    between atoms: _142  and  _144
REMARK   59  A    between atoms: _144  and  _145
REMARK   60  A    between atoms: _144  and  _147
REMARK   61  A    between atoms: _147  and  _148
REMARK   62  A    between atoms: _149  and  MG_450
REMARK   63  A    between atoms: _153  and  _155
REMARK   64  A    between atoms: _155  and  _156
REMARK   65  A    between atoms: _155  and  _158
REMARK   66  A    between atoms: _158  and  _159
REMARK   67  A    between atoms: _159  and  _160
REMARK   68  A    between atoms: _162  and  _164
REMARK   69  A    between atoms: _164  and  _165
REMARK   70  A    between atoms: _164  and  _167
REMARK   71  A    between atoms: _167  and  _168
REMARK   72  A    between atoms: _173  and  _175
REMARK   73  A    between atoms: _175  and  _176
REMARK   74  A    between atoms: _175  and  _178
REMARK   75  A    between atoms: _178  and  _179
REMARK   76  A    between atoms: _179  and  _180
REMARK   77  A    between atoms: _183  and  _185
REMARK   78  A    between atoms: _185  and  _186
REMARK   79  A    between atoms: _185  and  _188
REMARK   80  A    between atoms: _188  and  _189
REMARK   81  A    between atoms: _189  and  _190
REMARK   82  A    between atoms: _193  and  _195
REMARK   83  A    between atoms: _195  and  _196
REMARK   84  A    between atoms: _195  and  _198
REMARK   85  A    between atoms: _198  and  _199
REMARK   86  A    between atoms: _199  and  _200
REMARK   87  A    between atoms: _202  and  _204
REMARK   88  A    between atoms: _204  and  _205
REMARK   89  A    between atoms: _204  and  _207
REMARK   90  A    between atoms: _207  and  _208
REMARK   91  A    between atoms: _213  and  _214
REMARK   92  A    between atoms: _216  and  _218
REMARK   93  A    between atoms: _218  and  _219
REMARK   94  A    between atoms: _218  and  _221
REMARK   95  A    between atoms: _221  and  _222
REMARK   96  A    between atoms: _222  and  _223
REMARK   97  A    between atoms: _223  and  _224
REMARK   98  A    between atoms: _224  and  _225
REMARK   99  A    between atoms: _229  and  _231
REMARK  100  A    between atoms: _231  and  _232
REMARK  101  A    between atoms: _231  and  _234
REMARK  102  A    between atoms: _236  and  _238
REMARK  103  A    between atoms: _238  and  _239
REMARK  104  A    between atoms: _238  and  _241
REMARK  105  A    between atoms: _241  and  _242
REMARK  106  A    between atoms: _242  and  _243
REMARK  107  A    between atoms: _246  and  _248
REMARK  108  A    between atoms: _248  and  _249
REMARK  109  A    between atoms: _248  and  _251
REMARK  110  A    between atoms: _251  and  _252
REMARK  111  A    between atoms: _257  and  _259
REMARK  112  A    between atoms: _259  and  _260
REMARK  113  A    between atoms: _263  and  _265
REMARK  114  A    between atoms: _265  and  _266
REMARK  115  A    between atoms: _265  and  _268
REMARK  116  A    between atoms: _268  and  _269
REMARK  117  A    between atoms: _269  and  _270
REMARK  118  A    between atoms: _272  and  _274
REMARK  119  A    between atoms: _274  and  _275
REMARK  120  A    between atoms: _274  and  _277
REMARK  121  A    between atoms: _277  and  _278
REMARK  122  A    between atoms: _288  and  _290
REMARK  123  A    between atoms: _290  and  _291
REMARK  124  A    between atoms: _290  and  _293
REMARK  125  A    between atoms: _293  and  _294
REMARK  126  A    between atoms: _297  and  _299
REMARK  127  A    between atoms: _299  and  _300
REMARK  128  A    between atoms: _299  and  _302
REMARK  129  A    between atoms: _302  and  _303
REMARK  130  A    between atoms: _303  and  _304
REMARK  131  A    between atoms: _309  and  _311
REMARK  132  A    between atoms: _311  and  _312
REMARK  133  A    between atoms: _311  and  _314
REMARK  134  A    between atoms: _314  and  _315
REMARK  135  A    between atoms: _318  and  _320
REMARK  136  A    between atoms: _320  and  _321
REMARK  137  A    between atoms: _320  and  _323
REMARK  138  A    between atoms: _323  and  _324
REMARK  139  A    between atoms: _324  and  _325
REMARK  140  A    between atoms: _330  and  _332
REMARK  141  A    between atoms: _332  and  _333
REMARK  142  A    between atoms: _332  and  _335
REMARK  143  A    between atoms: _333  and  _334
REMARK  144  A    between atoms: _333  and  _342
REMARK  145  A    between atoms: _335  and  _336
REMARK  146  A    between atoms: _342  and  _344
REMARK  147  A    between atoms: _344  and  _345
REMARK  148  A    between atoms: _344  and  _347
REMARK  149  A    between atoms: _349  and  _351
REMARK  150  A    between atoms: _351  and  _352
REMARK  151  A    between atoms: _351  and  _354
REMARK  152  A    between atoms: _354  and  _355
REMARK  153  A    between atoms: _355  and  _356
REMARK  154  A    between atoms: _358  and  _360
REMARK  155  A    between atoms: _360  and  _361
REMARK  156  A    between atoms: _360  and  _363
REMARK  157  A    between atoms: _363  and  _364
REMARK  158  A    between atoms: _369  and  _371
REMARK  159  A    between atoms: _371  and  _372
REMARK  160  A    between atoms: _374  and  _376
REMARK  161  A    between atoms: _376  and  _377
REMARK  162  A    between atoms: _376  and  _379
REMARK  163  A    between atoms: _382  and  _384
REMARK  164  A    between atoms: _384  and  _385
REMARK  165  A    between atoms: _384  and  _387
REMARK  166  A    between atoms: _387  and  _388
REMARK  167  A    between atoms: _391  and  _393
REMARK  168  A    between atoms: _393  and  _394
REMARK  169  A    between atoms: _393  and  _396
REMARK  170  A    between atoms: _396  and  _397
REMARK  171  A    between atoms: _399  and  _401
REMARK  172  A    between atoms: _401  and  _402
REMARK  173  A    between atoms: _401  and  _404
REMARK  174  A    between atoms: _404  and  _405
REMARK  175  A    between atoms: _415  and  _417
REMARK  176  A    between atoms: _417  and  _418
REMARK  177  A    between atoms: _417  and  _420
REMARK  178  A    between atoms: _420  and  _421
REMARK  179  A    between atoms: _423  and  _425
REMARK  180  A    between atoms: _425  and  _426
REMARK  181  A    between atoms: _425  and  _428
REMARK  182  A    between atoms: _428  and  _429
REMARK  183  A    between atoms: _429  and  _430
REMARK  184  A    between atoms: _433  and  _435
REMARK  185  A    between atoms: _435  and  _436
REMARK  186  A    between atoms: _435  and  _438
REMARK  187  A    between atoms: _438  and  _439
REMARK  188  A    between atoms: _439  and  _440
REMARK  189  A    between atoms: _440  and  _441
REMARK                            x       y       z     vdW  Elec       q    Type
REMARK                         _______ _______ _______ _____ _____    ______ ____
ROOT
ATOM      1  O   HOH     1     -20.384 -22.847 -23.804  0.00  0.00    +0.000 OA
ENDROOT
TORSDOF 0
REMARK  Name = ../refined-set-2016/3t0b/3t0b_pocket.pdb
REMARK  189 active torsions:
REMARK  status: ('A' for Active; 'I' for Inactive)
REMARK    1  A    between atoms: _1  and  _3
REMARK    2  A    between atoms: _3  and  _4
REMARK    3  A    between atoms: _3  and  _6
REMARK    4  A    between atoms: _6  and  _7
REMARK    5  A    between atoms: _12  and  _13
REMARK    6  A    between atoms: _15  and  _17
REMARK    7  A    between atoms: _17  and  _18
REMARK    8  A    between atoms: _17  and  _20
REMARK    9  A    between atoms: _20  and  _21
REMARK   10  A    between atoms: _24  and  _26
REMARK   11  A    between atoms: _26  and  _27
REMARK   12  A    between atoms: _26  and  _29
REMARK   13  A    between atoms: _29  and  _30
REMARK   14  A    between atoms: _35  and  _37
REMARK   15  A    between atoms: _37  and  _38
REMARK   16  A    between atoms: _37  and  _40
REMARK   17  A    between atoms: _43  and  _45
REMARK   18  A    between atoms: _45  and  _46
REMARK   19  A    between atoms: _45  and  _48
REMARK   20  A    between atoms: _48  and  _49
REMARK   21  A    between atoms: _52  and  _54
REMARK   22  A    between atoms: _54  and  _55
REMARK   23  A    between atoms: _54  and  _57
REMARK   24  A    between atoms: _57  and  _58
REMARK   25  A    between atoms: _58  and  _59
REMARK   26  A    between atoms: _64  and  _66
REMARK   27  A    between atoms: _66  and  _67
REMARK   28  A    between atoms: _66  and  _69
REMARK   29  A    between atoms: _69  and  _70
REMARK   30  A    between atoms: _73  and  _75
REMARK   31  A    between atoms: _75  and  _76
REMARK   32  A    between atoms: _75  and  _78
REMARK   33  A    between atoms: _78  and  _79
REMARK   34  A    between atoms: _79  and  _80
REMARK   35  A    between atoms: _82  and  _84
REMARK   36  A    between atoms: _84  and  _85
REMARK   37  A    between atoms: _84  and  _87
REMARK   38  A    between atoms: _87  and  _88
REMARK   39  A    between atoms: _93  and  _95
REMARK   40  A    between atoms: _95  and  _96
REMARK   41  A    between atoms: _95  and  _98
REMARK   42  A    between atoms: _98  and  _99
REMARK   43  A    between atoms: _104  and  _106
REMARK   44  A    between atoms: _106  and  _107
REMARK   45  A    between atoms: _106  and  _109
REMARK   46  A    between atoms: _109  and  _110
REMARK   47  A    between atoms: _110  and  _111
REMARK   48  A    between atoms: _111  and  _112
REMARK   49  A    between atoms: _121  and  _123
REMARK   50  A    between atoms: _123  and  _124
REMARK   51  A    between atoms: _123  and  _126
REMARK   52  A    between atoms: _126  and  _127
REMARK   53  A    between atoms: _132  and  _134
REMARK   54  A    between atoms: _134  and  _135
REMARK   55  A    between atoms: _134  and  _137
REMARK   56  A    between atoms: _137  and  _138
REMARK   57  A    between atoms: _138  and  _139
REMARK   58  A    between atoms: _142  and  _144
REMARK   59  A    between atoms: _144  and  _145
REMARK   60  A    between atoms: _144  and  _147
REMARK   61  A    between atoms: _147  and  _148
REMARK   62  A    between atoms: _149  and  MG_450
REMARK   63  A    between atoms: _153  and  _155
REMARK   64  A    between atoms: _155  and  _156
REMARK   65  A    between atoms: _155  and  _158
REMARK   66  A    between atoms: _158  and  _159
REMARK   67  A    between atoms: _159  and  _160
REMARK   68  A    between atoms: _162  and  _164
REMARK   69  A    between atoms: _164  and  _165
REMARK   70  A    between atoms: _164  and  _167
REMARK   71  A    between atoms: _167  and  _168
REMARK   72  A    between atoms: _173  and  _175
REMARK   73  A    between atoms: _175  and  _176
REMARK   74  A    between atoms: _175  and  _178
REMARK   75  A    between atoms: _178  and  _179
REMARK   76  A    between atoms: _179  and  _180
REMARK   77  A    between atoms: _183  and  _185
REMARK   78  A    between atoms: _185  and  _186
REMARK   79  A    between atoms: _185  and  _188
REMARK   80  A    between atoms: _188  and  _189
REMARK   81  A    between atoms: _189  and  _190
REMARK   82  A    between atoms: _193  and  _195
REMARK   83  A    between atoms: _195  and  _196
REMARK   84  A    between atoms: _195  and  _198
REMARK   85  A    between atoms: _198  and  _199
REMARK   86  A    between atoms: _199  and  _200
REMARK   87  A    between atoms: _202  and  _204
REMARK   88  A    between atoms: _204  and  _205
REMARK   89  A    between atoms: _204  and  _207
REMARK   90  A    between atoms: _207  and  _208
REMARK   91  A    between atoms: _213  and  _214
REMARK   92  A    between atoms: _216  and  _218
REMARK   93  A    between atoms: _218  and  _219
REMARK   94  A    between atoms: _218  and  _221
REMARK   95  A    between atoms: _221  and  _222
REMARK   96  A    between atoms: _222  and  _223
REMARK   97  A    between atoms: _223  and  _224
REMARK   98  A    between atoms: _224  and  _225
REMARK   99  A    between atoms: _229  and  _231
REMARK  100  A    between atoms: _231  and  _232
REMARK  101  A    between atoms: _231  and  _234
REMARK  102  A    between atoms: _236  and  _238
REMARK  103  A    between atoms: _238  and  _239
REMARK  104  A    between atoms: _238  and  _241
REMARK  105  A    between atoms: _241  and  _242
REMARK  106  A    between atoms: _242  and  _243
REMARK  107  A    between atoms: _246  and  _248
REMARK  108  A    between atoms: _248  and  _249
REMARK  109  A    between atoms: _248  and  _251
REMARK  110  A    between atoms: _251  and  _252
REMARK  111  A    between atoms: _257  and  _259
REMARK  112  A    between atoms: _259  and  _260
REMARK  113  A    between atoms: _263  and  _265
REMARK  114  A    between atoms: _265  and  _266
REMARK  115  A    between atoms: _265  and  _268
REMARK  116  A    between atoms: _268  and  _269
REMARK  117  A    between atoms: _269  and  _270
REMARK  118  A    between atoms: _272  and  _274
REMARK  119  A    between atoms: _274  and  _275
REMARK  120  A    between atoms: _274  and  _277
REMARK  121  A    between atoms: _277  and  _278
REMARK  122  A    between atoms: _288  and  _290
REMARK  123  A    between atoms: _290  and  _291
REMARK  124  A    between atoms: _290  and  _293
REMARK  125  A    between atoms: _293  and  _294
REMARK  126  A    between atoms: _297  and  _299
REMARK  127  A    between atoms: _299  and  _300
REMARK  128  A    between atoms: _299  and  _302
REMARK  129  A    between atoms: _302  and  _303
REMARK  130  A    between atoms: _303  and  _304
REMARK  131  A    between atoms: _309  and  _311
REMARK  132  A    between atoms: _311  and  _312
REMARK  133  A    between atoms: _311  and  _314
REMARK  134  A    between atoms: _314  and  _315
REMARK  135  A    between atoms: _318  and  _320
REMARK  136  A    between atoms: _320  and  _321
REMARK  137  A    between atoms: _320  and  _323
REMARK  138  A    between atoms: _323  and  _324
REMARK  139  A    between atoms: _324  and  _325
REMARK  140  A    between atoms: _330  and  _332
REMARK  141  A    between atoms: _332  and  _333
REMARK  142  A    between atoms: _332  and  _335
REMARK  143  A    between atoms: _333  and  _334
REMARK  144  A    between atoms: _333  and  _342
REMARK  145  A    between atoms: _335  and  _336
REMARK  146  A    between atoms: _342  and  _344
REMARK  147  A    between atoms: _344  and  _345
REMARK  148  A    between atoms: _344  and  _347
REMARK  149  A    between atoms: _349  and  _351
REMARK  150  A    between atoms: _351  and  _352
REMARK  151  A    between atoms: _351  and  _354
REMARK  152  A    between atoms: _354  and  _355
REMARK  153  A    between atoms: _355  and  _356
REMARK  154  A    between atoms: _358  and  _360
REMARK  155  A    between atoms: _360  and  _361
REMARK  156  A    between atoms: _360  and  _363
REMARK  157  A    between atoms: _363  and  _364
REMARK  158  A    between atoms: _369  and  _371
REMARK  159  A    between atoms: _371  and  _372
REMARK  160  A    between atoms: _374  and  _376
REMARK  161  A    between atoms: _376  and  _377
REMARK  162  A    between atoms: _376  and  _379
REMARK  163  A    between atoms: _382  and  _384
REMARK  164  A    between atoms: _384  and  _385
REMARK  165  A    between atoms: _384  and  _387
REMARK  166  A    between atoms: _387  and  _388
REMARK  167  A    between atoms: _391  and  _393
REMARK  168  A    between atoms: _393  and  _394
REMARK  169  A    between atoms: _393  and  _396
REMARK  170  A    between atoms: _396  and  _397
REMARK  171  A    between atoms: _399  and  _401
REMARK  172  A    between atoms: _401  and  _402
REMARK  173  A    between atoms: _401  and  _404
REMARK  174  A    between atoms: _404  and  _405
REMARK  175  A    between atoms: _415  and  _417
REMARK  176  A    between atoms: _417  and  _418
REMARK  177  A    between atoms: _417  and  _420
REMARK  178  A    between atoms: _420  and  _421
REMARK  179  A    between atoms: _423  and  _425
REMARK  180  A    between atoms: _425  and  _426
REMARK  181  A    between atoms: _425  and  _428
REMARK  182  A    between atoms: _428  and  _429
REMARK  183  A    between atoms: _429  and  _430
REMARK  184  A    between atoms: _433  and  _435
REMARK  185  A    between atoms: _435  and  _436
REMARK  186  A    between atoms: _435  and  _438
REMARK  187  A    between atoms: _438  and  _439
REMARK  188  A    between atoms: _439  and  _440
REMARK  189  A    between atoms: _440  and  _441
REMARK                            x       y       z     vdW  Elec       q    Type
REMARK                         _______ _______ _______ _____ _____    ______ ____
ROOT
ATOM      1  O   HOH     1     -25.974 -26.302 -26.972  0.00  0.00    +0.000 OA
ENDROOT
TORSDOF 0
REMARK  Name = ../refined-set-2016/3t0b/3t0b_pocket.pdb
REMARK  189 active torsions:
REMARK  status: ('A' for Active; 'I' for Inactive)
REMARK    1  A    between atoms: _1  and  _3
REMARK    2  A    between atoms: _3  and  _4
REMARK    3  A    between atoms: _3  and  _6
REMARK    4  A    between atoms: _6  and  _7
REMARK    5  A    between atoms: _12  and  _13
REMARK    6  A    between atoms: _15  and  _17
REMARK    7  A    between atoms: _17  and  _18
REMARK    8  A    between atoms: _17  and  _20
REMARK    9  A    between atoms: _20  and  _21
REMARK   10  A    between atoms: _24  and  _26
REMARK   11  A    between atoms: _26  and  _27
REMARK   12  A    between atoms: _26  and  _29
REMARK   13  A    between atoms: _29  and  _30
REMARK   14  A    between atoms: _35  and  _37
REMARK   15  A    between atoms: _37  and  _38
REMARK   16  A    between atoms: _37  and  _40
REMARK   17  A    between atoms: _43  and  _45
REMARK   18  A    between atoms: _45  and  _46
REMARK   19  A    between atoms: _45  and  _48
REMARK   20  A    between atoms: _48  and  _49
REMARK   21  A    between atoms: _52  and  _54
REMARK   22  A    between atoms: _54  and  _55
REMARK   23  A    between atoms: _54  and  _57
REMARK   24  A    between atoms: _57  and  _58
REMARK   25  A    between atoms: _58  and  _59
REMARK   26  A    between atoms: _64  and  _66
REMARK   27  A    between atoms: _66  and  _67
REMARK   28  A    between atoms: _66  and  _69
REMARK   29  A    between atoms: _69  and  _70
REMARK   30  A    between atoms: _73  and  _75
REMARK   31  A    between atoms: _75  and  _76
REMARK   32  A    between atoms: _75  and  _78
REMARK   33  A    between atoms: _78  and  _79
REMARK   34  A    between atoms: _79  and  _80
REMARK   35  A    between atoms: _82  and  _84
REMARK   36  A    between atoms: _84  and  _85
REMARK   37  A    between atoms: _84  and  _87
REMARK   38  A    between atoms: _87  and  _88
REMARK   39  A    between atoms: _93  and  _95
REMARK   40  A    between atoms: _95  and  _96
REMARK   41  A    between atoms: _95  and  _98
REMARK   42  A    between atoms: _98  and  _99
REMARK   43  A    between atoms: _104  and  _106
REMARK   44  A    between atoms: _106  and  _107
REMARK   45  A    between atoms: _106  and  _109
REMARK   46  A    between atoms: _109  and  _110
REMARK   47  A    between atoms: _110  and  _111
REMARK   48  A    between atoms: _111  and  _112
REMARK   49  A    between atoms: _121  and  _123
REMARK   50  A    between atoms: _123  and  _124
REMARK   51  A    between atoms: _123  and  _126
REMARK   52  A    between atoms: _126  and  _127
REMARK   53  A    between atoms: _132  and  _134
REMARK   54  A    between atoms: _134  and  _135
REMARK   55  A    between atoms: _134  and  _137
REMARK   56  A    between atoms: _137  and  _138
REMARK   57  A    between atoms: _138  and  _139
REMARK   58  A    between atoms: _142  and  _144
REMARK   59  A    between atoms: _144  and  _145
REMARK   60  A    between atoms: _144  and  _147
REMARK   61  A    between atoms: _147  and  _148
REMARK   62  A    between atoms: _149  and  MG_450
REMARK   63  A    between atoms: _153  and  _155
REMARK   64  A    between atoms: _155  and  _156
REMARK   65  A    between atoms: _155  and  _158
REMARK   66  A    between atoms: _158  and  _159
REMARK   67  A    between atoms: _159  and  _160
REMARK   68  A    between atoms: _162  and  _164
REMARK   69  A    between atoms: _164  and  _165
REMARK   70  A    between atoms: _164  and  _167
REMARK   71  A    between atoms: _167  and  _168
REMARK   72  A    between atoms: _173  and  _175
REMARK   73  A    between atoms: _175  and  _176
REMARK   74  A    between atoms: _175  and  _178
REMARK   75  A    between atoms: _178  and  _179
REMARK   76  A    between atoms: _179  and  _180
REMARK   77  A    between atoms: _183  and  _185
REMARK   78  A    between atoms: _185  and  _186
REMARK   79  A    between atoms: _185  and  _188
REMARK   80  A    between atoms: _188  and  _189
REMARK   81  A    between atoms: _189  and  _190
REMARK   82  A    between atoms: _193  and  _195
REMARK   83  A    between atoms: _195  and  _196
REMARK   84  A    between atoms: _195  and  _198
REMARK   85  A    between atoms: _198  and  _199
REMARK   86  A    between atoms: _199  and  _200
REMARK   87  A    between atoms: _202  and  _204
REMARK   88  A    between atoms: _204  and  _205
REMARK   89  A    between atoms: _204  and  _207
REMARK   90  A    between atoms: _207  and  _208
REMARK   91  A    between atoms: _213  and  _214
REMARK   92  A    between atoms: _216  and  _218
REMARK   93  A    between atoms: _218  and  _219
REMARK   94  A    between atoms: _218  and  _221
REMARK   95  A    between atoms: _221  and  _222
REMARK   96  A    between atoms: _222  and  _223
REMARK   97  A    between atoms: _223  and  _224
REMARK   98  A    between atoms: _224  and  _225
REMARK   99  A    between atoms: _229  and  _231
REMARK  100  A    between atoms: _231  and  _232
REMARK  101  A    between atoms: _231  and  _234
REMARK  102  A    between atoms: _236  and  _238
REMARK  103  A    between atoms: _238  and  _239
REMARK  104  A    between atoms: _238  and  _241
REMARK  105  A    between atoms: _241  and  _242
REMARK  106  A    between atoms: _242  and  _243
REMARK  107  A    between atoms: _246  and  _248
REMARK  108  A    between atoms: _248  and  _249
REMARK  109  A    between atoms: _248  and  _251
REMARK  110  A    between atoms: _251  and  _252
REMARK  111  A    between atoms: _257  and  _259
REMARK  112  A    between atoms: _259  and  _260
REMARK  113  A    between atoms: _263  and  _265
REMARK  114  A    between atoms: _265  and  _266
REMARK  115  A    between atoms: _265  and  _268
REMARK  116  A    between atoms: _268  and  _269
REMARK  117  A    between atoms: _269  and  _270
REMARK  118  A    between atoms: _272  and  _274
REMARK  119  A    between atoms: _274  and  _275
REMARK  120  A    between atoms: _274  and  _277
REMARK  121  A    between atoms: _277  and  _278
REMARK  122  A    between atoms: _288  and  _290
REMARK  123  A    between atoms: _290  and  _291
REMARK  124  A    between atoms: _290  and  _293
REMARK  125  A    between atoms: _293  and  _294
REMARK  126  A    between atoms: _297  and  _299
REMARK  127  A    between atoms: _299  and  _300
REMARK  128  A    between atoms: _299  and  _302
REMARK  129  A    between atoms: _302  and  _303
REMARK  130  A    between atoms: _303  and  _304
REMARK  131  A    between atoms: _309  and  _311
REMARK  132  A    between atoms: _311  and  _312
REMARK  133  A    between atoms: _311  and  _314
REMARK  134  A    between atoms: _314  and  _315
REMARK  135  A    between atoms: _318  and  _320
REMARK  136  A    between atoms: _320  and  _321
REMARK  137  A    between atoms: _320  and  _323
REMARK  138  A    between atoms: _323  and  _324
REMARK  139  A    between atoms: _324  and  _325
REMARK  140  A    between atoms: _330  and  _332
REMARK  141  A    between atoms: _332  and  _333
REMARK  142  A    between atoms: _332  and  _335
REMARK  143  A    between atoms: _333  and  _334
REMARK  144  A    between atoms: _333  and  _342
REMARK  145  A    between atoms: _335  and  _336
REMARK  146  A    between atoms: _342  and  _344
REMARK  147  A    between atoms: _344  and  _345
REMARK  148  A    between atoms: _344  and  _347
REMARK  149  A    between atoms: _349  and  _351
REMARK  150  A    between atoms: _351  and  _352
REMARK  151  A    between atoms: _351  and  _354
REMARK  152  A    between atoms: _354  and  _355
REMARK  153  A    between atoms: _355  and  _356
REMARK  154  A    between atoms: _358  and  _360
REMARK  155  A    between atoms: _360  and  _361
REMARK  156  A    between atoms: _360  and  _363
REMARK  157  A    between atoms: _363  and  _364
REMARK  158  A    between atoms: _369  and  _371
REMARK  159  A    between atoms: _371  and  _372
REMARK  160  A    between atoms: _374  and  _376
REMARK  161  A    between atoms: _376  and  _377
REMARK  162  A    between atoms: _376  and  _379
REMARK  163  A    between atoms: _382  and  _384
REMARK  164  A    between atoms: _384  and  _385
REMARK  165  A    between atoms: _384  and  _387
REMARK  166  A    between atoms: _387  and  _388
REMARK  167  A    between atoms: _391  and  _393
REMARK  168  A    between atoms: _393  and  _394
REMARK  169  A    between atoms: _393  and  _396
REMARK  170  A    between atoms: _396  and  _397
REMARK  171  A    between atoms: _399  and  _401
REMARK  172  A    between atoms: _401  and  _402
REMARK  173  A    between atoms: _401  and  _404
REMARK  174  A    between atoms: _404  and  _405
REMARK  175  A    between atoms: _415  and  _417
REMARK  176  A    between atoms: _417  and  _418
REMARK  177  A    between atoms: _417  and  _420
REMARK  178  A    between atoms: _420  and  _421
REMARK  179  A    between atoms: _423  and  _425
REMARK  180  A    between atoms: _425  and  _426
REMARK  181  A    between atoms: _425  and  _428
REMARK  182  A    between atoms: _428  and  _429
REMARK  183  A    between atoms: _429  and  _430
REMARK  184  A    between atoms: _433  and  _435
REMARK  185  A    between atoms: _435  and  _436
REMARK  186  A    between atoms: _435  and  _438
REMARK  187  A    between atoms: _438  and  _439
REMARK  188  A    between atoms: _439  and  _440
REMARK  189  A    between atoms: _440  and  _441
REMARK                            x       y       z     vdW  Elec       q    Type
REMARK                         _______ _______ _______ _____ _____    ______ ____
ROOT
ATOM      1  O   HOH     1     -18.950 -25.189 -22.352  0.00  0.00    +0.000 OA
ENDROOT
TORSDOF 0
REMARK  Name = ../refined-set-2016/3t0b/3t0b_pocket.pdb
REMARK  189 active torsions:
REMARK  status: ('A' for Active; 'I' for Inactive)
REMARK    1  A    between atoms: _1  and  _3
REMARK    2  A    between atoms: _3  and  _4
REMARK    3  A    between atoms: _3  and  _6
REMARK    4  A    between atoms: _6  and  _7
REMARK    5  A    between atoms: _12  and  _13
REMARK    6  A    between atoms: _15  and  _17
REMARK    7  A    between atoms: _17  and  _18
REMARK    8  A    between atoms: _17  and  _20
REMARK    9  A    between atoms: _20  and  _21
REMARK   10  A    between atoms: _24  and  _26
REMARK   11  A    between atoms: _26  and  _27
REMARK   12  A    between atoms: _26  and  _29
REMARK   13  A    between atoms: _29  and  _30
REMARK   14  A    between atoms: _35  and  _37
REMARK   15  A    between atoms: _37  and  _38
REMARK   16  A    between atoms: _37  and  _40
REMARK   17  A    between atoms: _43  and  _45
REMARK   18  A    between atoms: _45  and  _46
REMARK   19  A    between atoms: _45  and  _48
REMARK   20  A    between atoms: _48  and  _49
REMARK   21  A    between atoms: _52  and  _54
REMARK   22  A    between atoms: _54  and  _55
REMARK   23  A    between atoms: _54  and  _57
REMARK   24  A    between atoms: _57  and  _58
REMARK   25  A    between atoms: _58  and  _59
REMARK   26  A    between atoms: _64  and  _66
REMARK   27  A    between atoms: _66  and  _67
REMARK   28  A    between atoms: _66  and  _69
REMARK   29  A    between atoms: _69  and  _70
REMARK   30  A    between atoms: _73  and  _75
REMARK   31  A    between atoms: _75  and  _76
REMARK   32  A    between atoms: _75  and  _78
REMARK   33  A    between atoms: _78  and  _79
REMARK   34  A    between atoms: _79  and  _80
REMARK   35  A    between atoms: _82  and  _84
REMARK   36  A    between atoms: _84  and  _85
REMARK   37  A    between atoms: _84  and  _87
REMARK   38  A    between atoms: _87  and  _88
REMARK   39  A    between atoms: _93  and  _95
REMARK   40  A    between atoms: _95  and  _96
REMARK   41  A    between atoms: _95  and  _98
REMARK   42  A    between atoms: _98  and  _99
REMARK   43  A    between atoms: _104  and  _106
REMARK   44  A    between atoms: _106  and  _107
REMARK   45  A    between atoms: _106  and  _109
REMARK   46  A    between atoms: _109  and  _110
REMARK   47  A    between atoms: _110  and  _111
REMARK   48  A    between atoms: _111  and  _112
REMARK   49  A    between atoms: _121  and  _123
REMARK   50  A    between atoms: _123  and  _124
REMARK   51  A    between atoms: _123  and  _126
REMARK   52  A    between atoms: _126  and  _127
REMARK   53  A    between atoms: _132  and  _134
REMARK   54  A    between atoms: _134  and  _135
REMARK   55  A    between atoms: _134  and  _137
REMARK   56  A    between atoms: _137  and  _138
REMARK   57  A    between atoms: _138  and  _139
REMARK   58  A    between atoms: _142  and  _144
REMARK   59  A    between atoms: _144  and  _145
REMARK   60  A    between atoms: _144  and  _147
REMARK   61  A    between atoms: _147  and  _148
REMARK   62  A    between atoms: _149  and  MG_450
REMARK   63  A    between atoms: _153  and  _155
REMARK   64  A    between atoms: _155  and  _156
REMARK   65  A    between atoms: _155  and  _158
REMARK   66  A    between atoms: _158  and  _159
REMARK   67  A    between atoms: _159  and  _160
REMARK   68  A    between atoms: _162  and  _164
REMARK   69  A    between atoms: _164  and  _165
REMARK   70  A    between atoms: _164  and  _167
REMARK   71  A    between atoms: _167  and  _168
REMARK   72  A    between atoms: _173  and  _175
REMARK   73  A    between atoms: _175  and  _176
REMARK   74  A    between atoms: _175  and  _178
REMARK   75  A    between atoms: _178  and  _179
REMARK   76  A    between atoms: _179  and  _180
REMARK   77  A    between atoms: _183  and  _185
REMARK   78  A    between atoms: _185  and  _186
REMARK   79  A    between atoms: _185  and  _188
REMARK   80  A    between atoms: _188  and  _189
REMARK   81  A    between atoms: _189  and  _190
REMARK   82  A    between atoms: _193  and  _195
REMARK   83  A    between atoms: _195  and  _196
REMARK   84  A    between atoms: _195  and  _198
REMARK   85  A    between atoms: _198  and  _199
REMARK   86  A    between atoms: _199  and  _200
REMARK   87  A    between atoms: _202  and  _204
REMARK   88  A    between atoms: _204  and  _205
REMARK   89  A    between atoms: _204  and  _207
REMARK   90  A    between atoms: _207  and  _208
REMARK   91  A    between atoms: _213  and  _214
REMARK   92  A    between atoms: _216  and  _218
REMARK   93  A    between atoms: _218  and  _219
REMARK   94  A    between atoms: _218  and  _221
REMARK   95  A    between atoms: _221  and  _222
REMARK   96  A    between atoms: _222  and  _223
REMARK   97  A    between atoms: _223  and  _224
REMARK   98  A    between atoms: _224  and  _225
REMARK   99  A    between atoms: _229  and  _231
REMARK  100  A    between atoms: _231  and  _232
REMARK  101  A    between atoms: _231  and  _234
REMARK  102  A    between atoms: _236  and  _238
REMARK  103  A    between atoms: _238  and  _239
REMARK  104  A    between atoms: _238  and  _241
REMARK  105  A    between atoms: _241  and  _242
REMARK  106  A    between atoms: _242  and  _243
REMARK  107  A    between atoms: _246  and  _248
REMARK  108  A    between atoms: _248  and  _249
REMARK  109  A    between atoms: _248  and  _251
REMARK  110  A    between atoms: _251  and  _252
REMARK  111  A    between atoms: _257  and  _259
REMARK  112  A    between atoms: _259  and  _260
REMARK  113  A    between atoms: _263  and  _265
REMARK  114  A    between atoms: _265  and  _266
REMARK  115  A    between atoms: _265  and  _268
REMARK  116  A    between atoms: _268  and  _269
REMARK  117  A    between atoms: _269  and  _270
REMARK  118  A    between atoms: _272  and  _274
REMARK  119  A    between atoms: _274  and  _275
REMARK  120  A    between atoms: _274  and  _277
REMARK  121  A    between atoms: _277  and  _278
REMARK  122  A    between atoms: _288  and  _290
REMARK  123  A    between atoms: _290  and  _291
REMARK  124  A    between atoms: _290  and  _293
REMARK  125  A    between atoms: _293  and  _294
REMARK  126  A    between atoms: _297  and  _299
REMARK  127  A    between atoms: _299  and  _300
REMARK  128  A    between atoms: _299  and  _302
REMARK  129  A    between atoms: _302  and  _303
REMARK  130  A    between atoms: _303  and  _304
REMARK  131  A    between atoms: _309  and  _311
REMARK  132  A    between atoms: _311  and  _312
REMARK  133  A    between atoms: _311  and  _314
REMARK  134  A    between atoms: _314  and  _315
REMARK  135  A    between atoms: _318  and  _320
REMARK  136  A    between atoms: _320  and  _321
REMARK  137  A    between atoms: _320  and  _323
REMARK  138  A    between atoms: _323  and  _324
REMARK  139  A    between atoms: _324  and  _325
REMARK  140  A    between atoms: _330  and  _332
REMARK  141  A    between atoms: _332  and  _333
REMARK  142  A    between atoms: _332  and  _335
REMARK  143  A    between atoms: _333  and  _334
REMARK  144  A    between atoms: _333  and  _342
REMARK  145  A    between atoms: _335  and  _336
REMARK  146  A    between atoms: _342  and  _344
REMARK  147  A    between atoms: _344  and  _345
REMARK  148  A    between atoms: _344  and  _347
REMARK  149  A    between atoms: _349  and  _351
REMARK  150  A    between atoms: _351  and  _352
REMARK  151  A    between atoms: _351  and  _354
REMARK  152  A    between atoms: _354  and  _355
REMARK  153  A    between atoms: _355  and  _356
REMARK  154  A    between atoms: _358  and  _360
REMARK  155  A    between atoms: _360  and  _361
REMARK  156  A    between atoms: _360  and  _363
REMARK  157  A    between atoms: _363  and  _364
REMARK  158  A    between atoms: _369  and  _371
REMARK  159  A    between atoms: _371  and  _372
REMARK  160  A    between atoms: _374  and  _376
REMARK  161  A    between atoms: _376  and  _377
REMARK  162  A    between atoms: _376  and  _379
REMARK  163  A    between atoms: _382  and  _384
REMARK  164  A    between atoms: _384  and  _385
REMARK  165  A    between atoms: _384  and  _387
REMARK  166  A    between atoms: _387  and  _388
REMARK  167  A    between atoms: _391  and  _393
REMARK  168  A    between atoms: _393  and  _394
REMARK  169  A    between atoms: _393  and  _396
REMARK  170  A    between atoms: _396  and  _397
REMARK  171  A    between atoms: _399  and  _401
REMARK  172  A    between atoms: _401  and  _402
REMARK  173  A    between atoms: _401  and  _404
REMARK  174  A    between atoms: _404  and  _405
REMARK  175  A    between atoms: _415  and  _417
REMARK  176  A    between atoms: _417  and  _418
REMARK  177  A    between atoms: _417  and  _420
REMARK  178  A    between atoms: _420  and  _421
REMARK  179  A    between atoms: _423  and  _425
REMARK  180  A    between atoms: _425  and  _426
REMARK  181  A    between atoms: _425  and  _428
REMARK  182  A    between atoms: _428  and  _429
REMARK  183  A    between atoms: _429  and  _430
REMARK  184  A    between atoms: _433  and  _435
REMARK  185  A    between atoms: _435  and  _436
REMARK  186  A    between atoms: _435  and  _438
REMARK  187  A    between atoms: _438  and  _439
REMARK  188  A    between atoms: _439  and  _440
REMARK  189  A    between atoms: _440  and  _441
REMARK                            x       y       z     vdW  Elec       q    Type
REMARK                         _______ _______ _______ _____ _____    ______ ____
ROOT
ATOM      1  O   HOH     1     -20.330 -31.989 -25.328  0.00  0.00    +0.000 OA
ENDROOT
TORSDOF 0
REMARK  Name = ../refined-set-2016/3t0b/3t0b_pocket.pdb
REMARK  189 active torsions:
REMARK  status: ('A' for Active; 'I' for Inactive)
REMARK    1  A    between atoms: _1  and  _3
REMARK    2  A    between atoms: _3  and  _4
REMARK    3  A    between atoms: _3  and  _6
REMARK    4  A    between atoms: _6  and  _7
REMARK    5  A    between atoms: _12  and  _13
REMARK    6  A    between atoms: _15  and  _17
REMARK    7  A    between atoms: _17  and  _18
REMARK    8  A    between atoms: _17  and  _20
REMARK    9  A    between atoms: _20  and  _21
REMARK   10  A    between atoms: _24  and  _26
REMARK   11  A    between atoms: _26  and  _27
REMARK   12  A    between atoms: _26  and  _29
REMARK   13  A    between atoms: _29  and  _30
REMARK   14  A    between atoms: _35  and  _37
REMARK   15  A    between atoms: _37  and  _38
REMARK   16  A    between atoms: _37  and  _40
REMARK   17  A    between atoms: _43  and  _45
REMARK   18  A    between atoms: _45  and  _46
REMARK   19  A    between atoms: _45  and  _48
REMARK   20  A    between atoms: _48  and  _49
REMARK   21  A    between atoms: _52  and  _54
REMARK   22  A    between atoms: _54  and  _55
REMARK   23  A    between atoms: _54  and  _57
REMARK   24  A    between atoms: _57  and  _58
REMARK   25  A    between atoms: _58  and  _59
REMARK   26  A    between atoms: _64  and  _66
REMARK   27  A    between atoms: _66  and  _67
REMARK   28  A    between atoms: _66  and  _69
REMARK   29  A    between atoms: _69  and  _70
REMARK   30  A    between atoms: _73  and  _75
REMARK   31  A    between atoms: _75  and  _76
REMARK   32  A    between atoms: _75  and  _78
REMARK   33  A    between atoms: _78  and  _79
REMARK   34  A    between atoms: _79  and  _80
REMARK   35  A    between atoms: _82  and  _84
REMARK   36  A    between atoms: _84  and  _85
REMARK   37  A    between atoms: _84  and  _87
REMARK   38  A    between atoms: _87  and  _88
REMARK   39  A    between atoms: _93  and  _95
REMARK   40  A    between atoms: _95  and  _96
REMARK   41  A    between atoms: _95  and  _98
REMARK   42  A    between atoms: _98  and  _99
REMARK   43  A    between atoms: _104  and  _106
REMARK   44  A    between atoms: _106  and  _107
REMARK   45  A    between atoms: _106  and  _109
REMARK   46  A    between atoms: _109  and  _110
REMARK   47  A    between atoms: _110  and  _111
REMARK   48  A    between atoms: _111  and  _112
REMARK   49  A    between atoms: _121  and  _123
REMARK   50  A    between atoms: _123  and  _124
REMARK   51  A    between atoms: _123  and  _126
REMARK   52  A    between atoms: _126  and  _127
REMARK   53  A    between atoms: _132  and  _134
REMARK   54  A    between atoms: _134  and  _135
REMARK   55  A    between atoms: _134  and  _137
REMARK   56  A    between atoms: _137  and  _138
REMARK   57  A    between atoms: _138  and  _139
REMARK   58  A    between atoms: _142  and  _144
REMARK   59  A    between atoms: _144  and  _145
REMARK   60  A    between atoms: _144  and  _147
REMARK   61  A    between atoms: _147  and  _148
REMARK   62  A    between atoms: _149  and  MG_450
REMARK   63  A    between atoms: _153  and  _155
REMARK   64  A    between atoms: _155  and  _156
REMARK   65  A    between atoms: _155  and  _158
REMARK   66  A    between atoms: _158  and  _159
REMARK   67  A    between atoms: _159  and  _160
REMARK   68  A    between atoms: _162  and  _164
REMARK   69  A    between atoms: _164  and  _165
REMARK   70  A    between atoms: _164  and  _167
REMARK   71  A    between atoms: _167  and  _168
REMARK   72  A    between atoms: _173  and  _175
REMARK   73  A    between atoms: _175  and  _176
REMARK   74  A    between atoms: _175  and  _178
REMARK   75  A    between atoms: _178  and  _179
REMARK   76  A    between atoms: _179  and  _180
REMARK   77  A    between atoms: _183  and  _185
REMARK   78  A    between atoms: _185  and  _186
REMARK   79  A    between atoms: _185  and  _188
REMARK   80  A    between atoms: _188  and  _189
REMARK   81  A    between atoms: _189  and  _190
REMARK   82  A    between atoms: _193  and  _195
REMARK   83  A    between atoms: _195  and  _196
REMARK   84  A    between atoms: _195  and  _198
REMARK   85  A    between atoms: _198  and  _199
REMARK   86  A    between atoms: _199  and  _200
REMARK   87  A    between atoms: _202  and  _204
REMARK   88  A    between atoms: _204  and  _205
REMARK   89  A    between atoms: _204  and  _207
REMARK   90  A    between atoms: _207  and  _208
REMARK   91  A    between atoms: _213  and  _214
REMARK   92  A    between atoms: _216  and  _218
REMARK   93  A    between atoms: _218  and  _219
REMARK   94  A    between atoms: _218  and  _221
REMARK   95  A    between atoms: _221  and  _222
REMARK   96  A    between atoms: _222  and  _223
REMARK   97  A    between atoms: _223  and  _224
REMARK   98  A    between atoms: _224  and  _225
REMARK   99  A    between atoms: _229  and  _231
REMARK  100  A    between atoms: _231  and  _232
REMARK  101  A    between atoms: _231  and  _234
REMARK  102  A    between atoms: _236  and  _238
REMARK  103  A    between atoms: _238  and  _239
REMARK  104  A    between atoms: _238  and  _241
REMARK  105  A    between atoms: _241  and  _242
REMARK  106  A    between atoms: _242  and  _243
REMARK  107  A    between atoms: _246  and  _248
REMARK  108  A    between atoms: _248  and  _249
REMARK  109  A    between atoms: _248  and  _251
REMARK  110  A    between atoms: _251  and  _252
REMARK  111  A    between atoms: _257  and  _259
REMARK  112  A    between atoms: _259  and  _260
REMARK  113  A    between atoms: _263  and  _265
REMARK  114  A    between atoms: _265  and  _266
REMARK  115  A    between atoms: _265  and  _268
REMARK  116  A    between atoms: _268  and  _269
REMARK  117  A    between atoms: _269  and  _270
REMARK  118  A    between atoms: _272  and  _274
REMARK  119  A    between atoms: _274  and  _275
REMARK  120  A    between atoms: _274  and  _277
REMARK  121  A    between atoms: _277  and  _278
REMARK  122  A    between atoms: _288  and  _290
REMARK  123  A    between atoms: _290  and  _291
REMARK  124  A    between atoms: _290  and  _293
REMARK  125  A    between atoms: _293  and  _294
REMARK  126  A    between atoms: _297  and  _299
REMARK  127  A    between atoms: _299  and  _300
REMARK  128  A    between atoms: _299  and  _302
REMARK  129  A    between atoms: _302  and  _303
REMARK  130  A    between atoms: _303  and  _304
REMARK  131  A    between atoms: _309  and  _311
REMARK  132  A    between atoms: _311  and  _312
REMARK  133  A    between atoms: _311  and  _314
REMARK  134  A    between atoms: _314  and  _315
REMARK  135  A    between atoms: _318  and  _320
REMARK  136  A    between atoms: _320  and  _321
REMARK  137  A    between atoms: _320  and  _323
REMARK  138  A    between atoms: _323  and  _324
REMARK  139  A    between atoms: _324  and  _325
REMARK  140  A    between atoms: _330  and  _332
REMARK  141  A    between atoms: _332  and  _333
REMARK  142  A    between atoms: _332  and  _335
REMARK  143  A    between atoms: _333  and  _334
REMARK  144  A    between atoms: _333  and  _342
REMARK  145  A    between atoms: _335  and  _336
REMARK  146  A    between atoms: _342  and  _344
REMARK  147  A    between atoms: _344  and  _345
REMARK  148  A    between atoms: _344  and  _347
REMARK  149  A    between atoms: _349  and  _351
REMARK  150  A    between atoms: _351  and  _352
REMARK  151  A    between atoms: _351  and  _354
REMARK  152  A    between atoms: _354  and  _355
REMARK  153  A    between atoms: _355  and  _356
REMARK  154  A    between atoms: _358  and  _360
REMARK  155  A    between atoms: _360  and  _361
REMARK  156  A    between atoms: _360  and  _363
REMARK  157  A    between atoms: _363  and  _364
REMARK  158  A    between atoms: _369  and  _371
REMARK  159  A    between atoms: _371  and  _372
REMARK  160  A    between atoms: _374  and  _376
REMARK  161  A    between atoms: _376  and  _377
REMARK  162  A    between atoms: _376  and  _379
REMARK  163  A    between atoms: _382  and  _384
REMARK  164  A    between atoms: _384  and  _385
REMARK  165  A    between atoms: _384  and  _387
REMARK  166  A    between atoms: _387  and  _388
REMARK  167  A    between atoms: _391  and  _393
REMARK  168  A    between atoms: _393  and  _394
REMARK  169  A    between atoms: _393  and  _396
REMARK  170  A    between atoms: _396  and  _397
REMARK  171  A    between atoms: _399  and  _401
REMARK  172  A    between atoms: _401  and  _402
REMARK  173  A    between atoms: _401  and  _404
REMARK  174  A    between atoms: _404  and  _405
REMARK  175  A    between atoms: _415  and  _417
REMARK  176  A    between atoms: _417  and  _418
REMARK  177  A    between atoms: _417  and  _420
REMARK  178  A    between atoms: _420  and  _421
REMARK  179  A    between atoms: _423  and  _425
REMARK  180  A    between atoms: _425  and  _426
REMARK  181  A    between atoms: _425  and  _428
REMARK  182  A    between atoms: _428  and  _429
REMARK  183  A    between atoms: _429  and  _430
REMARK  184  A    between atoms: _433  and  _435
REMARK  185  A    between atoms: _435  and  _436
REMARK  186  A    between atoms: _435  and  _438
REMARK  187  A    between atoms: _438  and  _439
REMARK  188  A    between atoms: _439  and  _440
REMARK  189  A    between atoms: _440  and  _441
REMARK                            x       y       z     vdW  Elec       q    Type
REMARK                         _______ _______ _______ _____ _____    ______ ____
ROOT
ATOM      1  O   HOH     1     -21.331 -22.426 -19.419  0.00  0.00    +0.000 OA
ENDROOT
TORSDOF 0
REMARK  Name = ../refined-set-2016/3t0b/3t0b_pocket.pdb
REMARK  189 active torsions:
REMARK  status: ('A' for Active; 'I' for Inactive)
REMARK    1  A    between atoms: _1  and  _3
REMARK    2  A    between atoms: _3  and  _4
REMARK    3  A    between atoms: _3  and  _6
REMARK    4  A    between atoms: _6  and  _7
REMARK    5  A    between atoms: _12  and  _13
REMARK    6  A    between atoms: _15  and  _17
REMARK    7  A    between atoms: _17  and  _18
REMARK    8  A    between atoms: _17  and  _20
REMARK    9  A    between atoms: _20  and  _21
REMARK   10  A    between atoms: _24  and  _26
REMARK   11  A    between atoms: _26  and  _27
REMARK   12  A    between atoms: _26  and  _29
REMARK   13  A    between atoms: _29  and  _30
REMARK   14  A    between atoms: _35  and  _37
REMARK   15  A    between atoms: _37  and  _38
REMARK   16  A    between atoms: _37  and  _40
REMARK   17  A    between atoms: _43  and  _45
REMARK   18  A    between atoms: _45  and  _46
REMARK   19  A    between atoms: _45  and  _48
REMARK   20  A    between atoms: _48  and  _49
REMARK   21  A    between atoms: _52  and  _54
REMARK   22  A    between atoms: _54  and  _55
REMARK   23  A    between atoms: _54  and  _57
REMARK   24  A    between atoms: _57  and  _58
REMARK   25  A    between atoms: _58  and  _59
REMARK   26  A    between atoms: _64  and  _66
REMARK   27  A    between atoms: _66  and  _67
REMARK   28  A    between atoms: _66  and  _69
REMARK   29  A    between atoms: _69  and  _70
REMARK   30  A    between atoms: _73  and  _75
REMARK   31  A    between atoms: _75  and  _76
REMARK   32  A    between atoms: _75  and  _78
REMARK   33  A    between atoms: _78  and  _79
REMARK   34  A    between atoms: _79  and  _80
REMARK   35  A    between atoms: _82  and  _84
REMARK   36  A    between atoms: _84  and  _85
REMARK   37  A    between atoms: _84  and  _87
REMARK   38  A    between atoms: _87  and  _88
REMARK   39  A    between atoms: _93  and  _95
REMARK   40  A    between atoms: _95  and  _96
REMARK   41  A    between atoms: _95  and  _98
REMARK   42  A    between atoms: _98  and  _99
REMARK   43  A    between atoms: _104  and  _106
REMARK   44  A    between atoms: _106  and  _107
REMARK   45  A    between atoms: _106  and  _109
REMARK   46  A    between atoms: _109  and  _110
REMARK   47  A    between atoms: _110  and  _111
REMARK   48  A    between atoms: _111  and  _112
REMARK   49  A    between atoms: _121  and  _123
REMARK   50  A    between atoms: _123  and  _124
REMARK   51  A    between atoms: _123  and  _126
REMARK   52  A    between atoms: _126  and  _127
REMARK   53  A    between atoms: _132  and  _134
REMARK   54  A    between atoms: _134  and  _135
REMARK   55  A    between atoms: _134  and  _137
REMARK   56  A    between atoms: _137  and  _138
REMARK   57  A    between atoms: _138  and  _139
REMARK   58  A    between atoms: _142  and  _144
REMARK   59  A    between atoms: _144  and  _145
REMARK   60  A    between atoms: _144  and  _147
REMARK   61  A    between atoms: _147  and  _148
REMARK   62  A    between atoms: _149  and  MG_450
REMARK   63  A    between atoms: _153  and  _155
REMARK   64  A    between atoms: _155  and  _156
REMARK   65  A    between atoms: _155  and  _158
REMARK   66  A    between atoms: _158  and  _159
REMARK   67  A    between atoms: _159  and  _160
REMARK   68  A    between atoms: _162  and  _164
REMARK   69  A    between atoms: _164  and  _165
REMARK   70  A    between atoms: _164  and  _167
REMARK   71  A    between atoms: _167  and  _168
REMARK   72  A    between atoms: _173  and  _175
REMARK   73  A    between atoms: _175  and  _176
REMARK   74  A    between atoms: _175  and  _178
REMARK   75  A    between atoms: _178  and  _179
REMARK   76  A    between atoms: _179  and  _180
REMARK   77  A    between atoms: _183  and  _185
REMARK   78  A    between atoms: _185  and  _186
REMARK   79  A    between atoms: _185  and  _188
REMARK   80  A    between atoms: _188  and  _189
REMARK   81  A    between atoms: _189  and  _190
REMARK   82  A    between atoms: _193  and  _195
REMARK   83  A    between atoms: _195  and  _196
REMARK   84  A    between atoms: _195  and  _198
REMARK   85  A    between atoms: _198  and  _199
REMARK   86  A    between atoms: _199  and  _200
REMARK   87  A    between atoms: _202  and  _204
REMARK   88  A    between atoms: _204  and  _205
REMARK   89  A    between atoms: _204  and  _207
REMARK   90  A    between atoms: _207  and  _208
REMARK   91  A    between atoms: _213  and  _214
REMARK   92  A    between atoms: _216  and  _218
REMARK   93  A    between atoms: _218  and  _219
REMARK   94  A    between atoms: _218  and  _221
REMARK   95  A    between atoms: _221  and  _222
REMARK   96  A    between atoms: _222  and  _223
REMARK   97  A    between atoms: _223  and  _224
REMARK   98  A    between atoms: _224  and  _225
REMARK   99  A    between atoms: _229  and  _231
REMARK  100  A    between atoms: _231  and  _232
REMARK  101  A    between atoms: _231  and  _234
REMARK  102  A    between atoms: _236  and  _238
REMARK  103  A    between atoms: _238  and  _239
REMARK  104  A    between atoms: _238  and  _241
REMARK  105  A    between atoms: _241  and  _242
REMARK  106  A    between atoms: _242  and  _243
REMARK  107  A    between atoms: _246  and  _248
REMARK  108  A    between atoms: _248  and  _249
REMARK  109  A    between atoms: _248  and  _251
REMARK  110  A    between atoms: _251  and  _252
REMARK  111  A    between atoms: _257  and  _259
REMARK  112  A    between atoms: _259  and  _260
REMARK  113  A    between atoms: _263  and  _265
REMARK  114  A    between atoms: _265  and  _266
REMARK  115  A    between atoms: _265  and  _268
REMARK  116  A    between atoms: _268  and  _269
REMARK  117  A    between atoms: _269  and  _270
REMARK  118  A    between atoms: _272  and  _274
REMARK  119  A    between atoms: _274  and  _275
REMARK  120  A    between atoms: _274  and  _277
REMARK  121  A    between atoms: _277  and  _278
REMARK  122  A    between atoms: _288  and  _290
REMARK  123  A    between atoms: _290  and  _291
REMARK  124  A    between atoms: _290  and  _293
REMARK  125  A    between atoms: _293  and  _294
REMARK  126  A    between atoms: _297  and  _299
REMARK  127  A    between atoms: _299  and  _300
REMARK  128  A    between atoms: _299  and  _302
REMARK  129  A    between atoms: _302  and  _303
REMARK  130  A    between atoms: _303  and  _304
REMARK  131  A    between atoms: _309  and  _311
REMARK  132  A    between atoms: _311  and  _312
REMARK  133  A    between atoms: _311  and  _314
REMARK  134  A    between atoms: _314  and  _315
REMARK  135  A    between atoms: _318  and  _320
REMARK  136  A    between atoms: _320  and  _321
REMARK  137  A    between atoms: _320  and  _323
REMARK  138  A    between atoms: _323  and  _324
REMARK  139  A    between atoms: _324  and  _325
REMARK  140  A    between atoms: _330  and  _332
REMARK  141  A    between atoms: _332  and  _333
REMARK  142  A    between atoms: _332  and  _335
REMARK  143  A    between atoms: _333  and  _334
REMARK  144  A    between atoms: _333  and  _342
REMARK  145  A    between atoms: _335  and  _336
REMARK  146  A    between atoms: _342  and  _344
REMARK  147  A    between atoms: _344  and  _345
REMARK  148  A    between atoms: _344  and  _347
REMARK  149  A    between atoms: _349  and  _351
REMARK  150  A    between atoms: _351  and  _352
REMARK  151  A    between atoms: _351  and  _354
REMARK  152  A    between atoms: _354  and  _355
REMARK  153  A    between atoms: _355  and  _356
REMARK  154  A    between atoms: _358  and  _360
REMARK  155  A    between atoms: _360  and  _361
REMARK  156  A    between atoms: _360  and  _363
REMARK  157  A    between atoms: _363  and  _364
REMARK  158  A    between atoms: _369  and  _371
REMARK  159  A    between atoms: _371  and  _372
REMARK  160  A    between atoms: _374  and  _376
REMARK  161  A    between atoms: _376  and  _377
REMARK  162  A    between atoms: _376  and  _379
REMARK  163  A    between atoms: _382  and  _384
REMARK  164  A    between atoms: _384  and  _385
REMARK  165  A    between atoms: _384  and  _387
REMARK  166  A    between atoms: _387  and  _388
REMARK  167  A    between atoms: _391  and  _393
REMARK  168  A    between atoms: _393  and  _394
REMARK  169  A    between atoms: _393  and  _396
REMARK  170  A    between atoms: _396  and  _397
REMARK  171  A    between atoms: _399  and  _401
REMARK  172  A    between atoms: _401  and  _402
REMARK  173  A    between atoms: _401  and  _404
REMARK  174  A    between atoms: _404  and  _405
REMARK  175  A    between atoms: _415  and  _417
REMARK  176  A    between atoms: _417  and  _418
REMARK  177  A    between atoms: _417  and  _420
REMARK  178  A    between atoms: _420  and  _421
REMARK  179  A    between atoms: _423  and  _425
REMARK  180  A    between atoms: _425  and  _426
REMARK  181  A    between atoms: _425  and  _428
REMARK  182  A    between atoms: _428  and  _429
REMARK  183  A    between atoms: _429  and  _430
REMARK  184  A    between atoms: _433  and  _435
REMARK  185  A    between atoms: _435  and  _436
REMARK  186  A    between atoms: _435  and  _438
REMARK  187  A    between atoms: _438  and  _439
REMARK  188  A    between atoms: _439  and  _440
REMARK  189  A    between atoms: _440  and  _441
REMARK                            x       y       z     vdW  Elec       q    Type
REMARK                         _______ _______ _______ _____ _____    ______ ____
ROOT
ATOM      1  O   HOH     1     -13.774 -22.836 -20.283  0.00  0.00    +0.000 OA
ENDROOT
TORSDOF 0
REMARK  Name = ../refined-set-2016/3t0b/3t0b_pocket.pdb
REMARK  189 active torsions:
REMARK  status: ('A' for Active; 'I' for Inactive)
REMARK    1  A    between atoms: _1  and  _3
REMARK    2  A    between atoms: _3  and  _4
REMARK    3  A    between atoms: _3  and  _6
REMARK    4  A    between atoms: _6  and  _7
REMARK    5  A    between atoms: _12  and  _13
REMARK    6  A    between atoms: _15  and  _17
REMARK    7  A    between atoms: _17  and  _18
REMARK    8  A    between atoms: _17  and  _20
REMARK    9  A    between atoms: _20  and  _21
REMARK   10  A    between atoms: _24  and  _26
REMARK   11  A    between atoms: _26  and  _27
REMARK   12  A    between atoms: _26  and  _29
REMARK   13  A    between atoms: _29  and  _30
REMARK   14  A    between atoms: _35  and  _37
REMARK   15  A    between atoms: _37  and  _38
REMARK   16  A    between atoms: _37  and  _40
REMARK   17  A    between atoms: _43  and  _45
REMARK   18  A    between atoms: _45  and  _46
REMARK   19  A    between atoms: _45  and  _48
REMARK   20  A    between atoms: _48  and  _49
REMARK   21  A    between atoms: _52  and  _54
REMARK   22  A    between atoms: _54  and  _55
REMARK   23  A    between atoms: _54  and  _57
REMARK   24  A    between atoms: _57  and  _58
REMARK   25  A    between atoms: _58  and  _59
REMARK   26  A    between atoms: _64  and  _66
REMARK   27  A    between atoms: _66  and  _67
REMARK   28  A    between atoms: _66  and  _69
REMARK   29  A    between atoms: _69  and  _70
REMARK   30  A    between atoms: _73  and  _75
REMARK   31  A    between atoms: _75  and  _76
REMARK   32  A    between atoms: _75  and  _78
REMARK   33  A    between atoms: _78  and  _79
REMARK   34  A    between atoms: _79  and  _80
REMARK   35  A    between atoms: _82  and  _84
REMARK   36  A    between atoms: _84  and  _85
REMARK   37  A    between atoms: _84  and  _87
REMARK   38  A    between atoms: _87  and  _88
REMARK   39  A    between atoms: _93  and  _95
REMARK   40  A    between atoms: _95  and  _96
REMARK   41  A    between atoms: _95  and  _98
REMARK   42  A    between atoms: _98  and  _99
REMARK   43  A    between atoms: _104  and  _106
REMARK   44  A    between atoms: _106  and  _107
REMARK   45  A    between atoms: _106  and  _109
REMARK   46  A    between atoms: _109  and  _110
REMARK   47  A    between atoms: _110  and  _111
REMARK   48  A    between atoms: _111  and  _112
REMARK   49  A    between atoms: _121  and  _123
REMARK   50  A    between atoms: _123  and  _124
REMARK   51  A    between atoms: _123  and  _126
REMARK   52  A    between atoms: _126  and  _127
REMARK   53  A    between atoms: _132  and  _134
REMARK   54  A    between atoms: _134  and  _135
REMARK   55  A    between atoms: _134  and  _137
REMARK   56  A    between atoms: _137  and  _138
REMARK   57  A    between atoms: _138  and  _139
REMARK   58  A    between atoms: _142  and  _144
REMARK   59  A    between atoms: _144  and  _145
REMARK   60  A    between atoms: _144  and  _147
REMARK   61  A    between atoms: _147  and  _148
REMARK   62  A    between atoms: _149  and  MG_450
REMARK   63  A    between atoms: _153  and  _155
REMARK   64  A    between atoms: _155  and  _156
REMARK   65  A    between atoms: _155  and  _158
REMARK   66  A    between atoms: _158  and  _159
REMARK   67  A    between atoms: _159  and  _160
REMARK   68  A    between atoms: _162  and  _164
REMARK   69  A    between atoms: _164  and  _165
REMARK   70  A    between atoms: _164  and  _167
REMARK   71  A    between atoms: _167  and  _168
REMARK   72  A    between atoms: _173  and  _175
REMARK   73  A    between atoms: _175  and  _176
REMARK   74  A    between atoms: _175  and  _178
REMARK   75  A    between atoms: _178  and  _179
REMARK   76  A    between atoms: _179  and  _180
REMARK   77  A    between atoms: _183  and  _185
REMARK   78  A    between atoms: _185  and  _186
REMARK   79  A    between atoms: _185  and  _188
REMARK   80  A    between atoms: _188  and  _189
REMARK   81  A    between atoms: _189  and  _190
REMARK   82  A    between atoms: _193  and  _195
REMARK   83  A    between atoms: _195  and  _196
REMARK   84  A    between atoms: _195  and  _198
REMARK   85  A    between atoms: _198  and  _199
REMARK   86  A    between atoms: _199  and  _200
REMARK   87  A    between atoms: _202  and  _204
REMARK   88  A    between atoms: _204  and  _205
REMARK   89  A    between atoms: _204  and  _207
REMARK   90  A    between atoms: _207  and  _208
REMARK   91  A    between atoms: _213  and  _214
REMARK   92  A    between atoms: _216  and  _218
REMARK   93  A    between atoms: _218  and  _219
REMARK   94  A    between atoms: _218  and  _221
REMARK   95  A    between atoms: _221  and  _222
REMARK   96  A    between atoms: _222  and  _223
REMARK   97  A    between atoms: _223  and  _224
REMARK   98  A    between atoms: _224  and  _225
REMARK   99  A    between atoms: _229  and  _231
REMARK  100  A    between atoms: _231  and  _232
REMARK  101  A    between atoms: _231  and  _234
REMARK  102  A    between atoms: _236  and  _238
REMARK  103  A    between atoms: _238  and  _239
REMARK  104  A    between atoms: _238  and  _241
REMARK  105  A    between atoms: _241  and  _242
REMARK  106  A    between atoms: _242  and  _243
REMARK  107  A    between atoms: _246  and  _248
REMARK  108  A    between atoms: _248  and  _249
REMARK  109  A    between atoms: _248  and  _251
REMARK  110  A    between atoms: _251  and  _252
REMARK  111  A    between atoms: _257  and  _259
REMARK  112  A    between atoms: _259  and  _260
REMARK  113  A    between atoms: _263  and  _265
REMARK  114  A    between atoms: _265  and  _266
REMARK  115  A    between atoms: _265  and  _268
REMARK  116  A    between atoms: _268  and  _269
REMARK  117  A    between atoms: _269  and  _270
REMARK  118  A    between atoms: _272  and  _274
REMARK  119  A    between atoms: _274  and  _275
REMARK  120  A    between atoms: _274  and  _277
REMARK  121  A    between atoms: _277  and  _278
REMARK  122  A    between atoms: _288  and  _290
REMARK  123  A    between atoms: _290  and  _291
REMARK  124  A    between atoms: _290  and  _293
REMARK  125  A    between atoms: _293  and  _294
REMARK  126  A    between atoms: _297  and  _299
REMARK  127  A    between atoms: _299  and  _300
REMARK  128  A    between atoms: _299  and  _302
REMARK  129  A    between atoms: _302  and  _303
REMARK  130  A    between atoms: _303  and  _304
REMARK  131  A    between atoms: _309  and  _311
REMARK  132  A    between atoms: _311  and  _312
REMARK  133  A    between atoms: _311  and  _314
REMARK  134  A    between atoms: _314  and  _315
REMARK  135  A    between atoms: _318  and  _320
REMARK  136  A    between atoms: _320  and  _321
REMARK  137  A    between atoms: _320  and  _323
REMARK  138  A    between atoms: _323  and  _324
REMARK  139  A    between atoms: _324  and  _325
REMARK  140  A    between atoms: _330  and  _332
REMARK  141  A    between atoms: _332  and  _333
REMARK  142  A    between atoms: _332  and  _335
REMARK  143  A    between atoms: _333  and  _334
REMARK  144  A    between atoms: _333  and  _342
REMARK  145  A    between atoms: _335  and  _336
REMARK  146  A    between atoms: _342  and  _344
REMARK  147  A    between atoms: _344  and  _345
REMARK  148  A    between atoms: _344  and  _347
REMARK  149  A    between atoms: _349  and  _351
REMARK  150  A    between atoms: _351  and  _352
REMARK  151  A    between atoms: _351  and  _354
REMARK  152  A    between atoms: _354  and  _355
REMARK  153  A    between atoms: _355  and  _356
REMARK  154  A    between atoms: _358  and  _360
REMARK  155  A    between atoms: _360  and  _361
REMARK  156  A    between atoms: _360  and  _363
REMARK  157  A    between atoms: _363  and  _364
REMARK  158  A    between atoms: _369  and  _371
REMARK  159  A    between atoms: _371  and  _372
REMARK  160  A    between atoms: _374  and  _376
REMARK  161  A    between atoms: _376  and  _377
REMARK  162  A    between atoms: _376  and  _379
REMARK  163  A    between atoms: _382  and  _384
REMARK  164  A    between atoms: _384  and  _385
REMARK  165  A    between atoms: _384  and  _387
REMARK  166  A    between atoms: _387  and  _388
REMARK  167  A    between atoms: _391  and  _393
REMARK  168  A    between atoms: _393  and  _394
REMARK  169  A    between atoms: _393  and  _396
REMARK  170  A    between atoms: _396  and  _397
REMARK  171  A    between atoms: _399  and  _401
REMARK  172  A    between atoms: _401  and  _402
REMARK  173  A    between atoms: _401  and  _404
REMARK  174  A    between atoms: _404  and  _405
REMARK  175  A    between atoms: _415  and  _417
REMARK  176  A    between atoms: _417  and  _418
REMARK  177  A    between atoms: _417  and  _420
REMARK  178  A    between atoms: _420  and  _421
REMARK  179  A    between atoms: _423  and  _425
REMARK  180  A    between atoms: _425  and  _426
REMARK  181  A    between atoms: _425  and  _428
REMARK  182  A    between atoms: _428  and  _429
REMARK  183  A    between atoms: _429  and  _430
REMARK  184  A    between atoms: _433  and  _435
REMARK  185  A    between atoms: _435  and  _436
REMARK  186  A    between atoms: _435  and  _438
REMARK  187  A    between atoms: _438  and  _439
REMARK  188  A    between atoms: _439  and  _440
REMARK  189  A    between atoms: _440  and  _441
REMARK                            x       y       z     vdW  Elec       q    Type
REMARK                         _______ _______ _______ _____ _____    ______ ____
ROOT
ATOM      1  O   HOH     1     -22.018 -24.771 -19.976  0.00  0.00    +0.000 OA
ENDROOT
TORSDOF 0
REMARK  Name = ../refined-set-2016/3t0b/3t0b_pocket.pdb
REMARK  189 active torsions:
REMARK  status: ('A' for Active; 'I' for Inactive)
REMARK    1  A    between atoms: _1  and  _3
REMARK    2  A    between atoms: _3  and  _4
REMARK    3  A    between atoms: _3  and  _6
REMARK    4  A    between atoms: _6  and  _7
REMARK    5  A    between atoms: _12  and  _13
REMARK    6  A    between atoms: _15  and  _17
REMARK    7  A    between atoms: _17  and  _18
REMARK    8  A    between atoms: _17  and  _20
REMARK    9  A    between atoms: _20  and  _21
REMARK   10  A    between atoms: _24  and  _26
REMARK   11  A    between atoms: _26  and  _27
REMARK   12  A    between atoms: _26  and  _29
REMARK   13  A    between atoms: _29  and  _30
REMARK   14  A    between atoms: _35  and  _37
REMARK   15  A    between atoms: _37  and  _38
REMARK   16  A    between atoms: _37  and  _40
REMARK   17  A    between atoms: _43  and  _45
REMARK   18  A    between atoms: _45  and  _46
REMARK   19  A    between atoms: _45  and  _48
REMARK   20  A    between atoms: _48  and  _49
REMARK   21  A    between atoms: _52  and  _54
REMARK   22  A    between atoms: _54  and  _55
REMARK   23  A    between atoms: _54  and  _57
REMARK   24  A    between atoms: _57  and  _58
REMARK   25  A    between atoms: _58  and  _59
REMARK   26  A    between atoms: _64  and  _66
REMARK   27  A    between atoms: _66  and  _67
REMARK   28  A    between atoms: _66  and  _69
REMARK   29  A    between atoms: _69  and  _70
REMARK   30  A    between atoms: _73  and  _75
REMARK   31  A    between atoms: _75  and  _76
REMARK   32  A    between atoms: _75  and  _78
REMARK   33  A    between atoms: _78  and  _79
REMARK   34  A    between atoms: _79  and  _80
REMARK   35  A    between atoms: _82  and  _84
REMARK   36  A    between atoms: _84  and  _85
REMARK   37  A    between atoms: _84  and  _87
REMARK   38  A    between atoms: _87  and  _88
REMARK   39  A    between atoms: _93  and  _95
REMARK   40  A    between atoms: _95  and  _96
REMARK   41  A    between atoms: _95  and  _98
REMARK   42  A    between atoms: _98  and  _99
REMARK   43  A    between atoms: _104  and  _106
REMARK   44  A    between atoms: _106  and  _107
REMARK   45  A    between atoms: _106  and  _109
REMARK   46  A    between atoms: _109  and  _110
REMARK   47  A    between atoms: _110  and  _111
REMARK   48  A    between atoms: _111  and  _112
REMARK   49  A    between atoms: _121  and  _123
REMARK   50  A    between atoms: _123  and  _124
REMARK   51  A    between atoms: _123  and  _126
REMARK   52  A    between atoms: _126  and  _127
REMARK   53  A    between atoms: _132  and  _134
REMARK   54  A    between atoms: _134  and  _135
REMARK   55  A    between atoms: _134  and  _137
REMARK   56  A    between atoms: _137  and  _138
REMARK   57  A    between atoms: _138  and  _139
REMARK   58  A    between atoms: _142  and  _144
REMARK   59  A    between atoms: _144  and  _145
REMARK   60  A    between atoms: _144  and  _147
REMARK   61  A    between atoms: _147  and  _148
REMARK   62  A    between atoms: _149  and  MG_450
REMARK   63  A    between atoms: _153  and  _155
REMARK   64  A    between atoms: _155  and  _156
REMARK   65  A    between atoms: _155  and  _158
REMARK   66  A    between atoms: _158  and  _159
REMARK   67  A    between atoms: _159  and  _160
REMARK   68  A    between atoms: _162  and  _164
REMARK   69  A    between atoms: _164  and  _165
REMARK   70  A    between atoms: _164  and  _167
REMARK   71  A    between atoms: _167  and  _168
REMARK   72  A    between atoms: _173  and  _175
REMARK   73  A    between atoms: _175  and  _176
REMARK   74  A    between atoms: _175  and  _178
REMARK   75  A    between atoms: _178  and  _179
REMARK   76  A    between atoms: _179  and  _180
REMARK   77  A    between atoms: _183  and  _185
REMARK   78  A    between atoms: _185  and  _186
REMARK   79  A    between atoms: _185  and  _188
REMARK   80  A    between atoms: _188  and  _189
REMARK   81  A    between atoms: _189  and  _190
REMARK   82  A    between atoms: _193  and  _195
REMARK   83  A    between atoms: _195  and  _196
REMARK   84  A    between atoms: _195  and  _198
REMARK   85  A    between atoms: _198  and  _199
REMARK   86  A    between atoms: _199  and  _200
REMARK   87  A    between atoms: _202  and  _204
REMARK   88  A    between atoms: _204  and  _205
REMARK   89  A    between atoms: _204  and  _207
REMARK   90  A    between atoms: _207  and  _208
REMARK   91  A    between atoms: _213  and  _214
REMARK   92  A    between atoms: _216  and  _218
REMARK   93  A    between atoms: _218  and  _219
REMARK   94  A    between atoms: _218  and  _221
REMARK   95  A    between atoms: _221  and  _222
REMARK   96  A    between atoms: _222  and  _223
REMARK   97  A    between atoms: _223  and  _224
REMARK   98  A    between atoms: _224  and  _225
REMARK   99  A    between atoms: _229  and  _231
REMARK  100  A    between atoms: _231  and  _232
REMARK  101  A    between atoms: _231  and  _234
REMARK  102  A    between atoms: _236  and  _238
REMARK  103  A    between atoms: _238  and  _239
REMARK  104  A    between atoms: _238  and  _241
REMARK  105  A    between atoms: _241  and  _242
REMARK  106  A    between atoms: _242  and  _243
REMARK  107  A    between atoms: _246  and  _248
REMARK  108  A    between atoms: _248  and  _249
REMARK  109  A    between atoms: _248  and  _251
REMARK  110  A    between atoms: _251  and  _252
REMARK  111  A    between atoms: _257  and  _259
REMARK  112  A    between atoms: _259  and  _260
REMARK  113  A    between atoms: _263  and  _265
REMARK  114  A    between atoms: _265  and  _266
REMARK  115  A    between atoms: _265  and  _268
REMARK  116  A    between atoms: _268  and  _269
REMARK  117  A    between atoms: _269  and  _270
REMARK  118  A    between atoms: _272  and  _274
REMARK  119  A    between atoms: _274  and  _275
REMARK  120  A    between atoms: _274  and  _277
REMARK  121  A    between atoms: _277  and  _278
REMARK  122  A    between atoms: _288  and  _290
REMARK  123  A    between atoms: _290  and  _291
REMARK  124  A    between atoms: _290  and  _293
REMARK  125  A    between atoms: _293  and  _294
REMARK  126  A    between atoms: _297  and  _299
REMARK  127  A    between atoms: _299  and  _300
REMARK  128  A    between atoms: _299  and  _302
REMARK  129  A    between atoms: _302  and  _303
REMARK  130  A    between atoms: _303  and  _304
REMARK  131  A    between atoms: _309  and  _311
REMARK  132  A    between atoms: _311  and  _312
REMARK  133  A    between atoms: _311  and  _314
REMARK  134  A    between atoms: _314  and  _315
REMARK  135  A    between atoms: _318  and  _320
REMARK  136  A    between atoms: _320  and  _321
REMARK  137  A    between atoms: _320  and  _323
REMARK  138  A    between atoms: _323  and  _324
REMARK  139  A    between atoms: _324  and  _325
REMARK  140  A    between atoms: _330  and  _332
REMARK  141  A    between atoms: _332  and  _333
REMARK  142  A    between atoms: _332  and  _335
REMARK  143  A    between atoms: _333  and  _334
REMARK  144  A    between atoms: _333  and  _342
REMARK  145  A    between atoms: _335  and  _336
REMARK  146  A    between atoms: _342  and  _344
REMARK  147  A    between atoms: _344  and  _345
REMARK  148  A    between atoms: _344  and  _347
REMARK  149  A    between atoms: _349  and  _351
REMARK  150  A    between atoms: _351  and  _352
REMARK  151  A    between atoms: _351  and  _354
REMARK  152  A    between atoms: _354  and  _355
REMARK  153  A    between atoms: _355  and  _356
REMARK  154  A    between atoms: _358  and  _360
REMARK  155  A    between atoms: _360  and  _361
REMARK  156  A    between atoms: _360  and  _363
REMARK  157  A    between atoms: _363  and  _364
REMARK  158  A    between atoms: _369  and  _371
REMARK  159  A    between atoms: _371  and  _372
REMARK  160  A    between atoms: _374  and  _376
REMARK  161  A    between atoms: _376  and  _377
REMARK  162  A    between atoms: _376  and  _379
REMARK  163  A    between atoms: _382  and  _384
REMARK  164  A    between atoms: _384  and  _385
REMARK  165  A    between atoms: _384  and  _387
REMARK  166  A    between atoms: _387  and  _388
REMARK  167  A    between atoms: _391  and  _393
REMARK  168  A    between atoms: _393  and  _394
REMARK  169  A    between atoms: _393  and  _396
REMARK  170  A    between atoms: _396  and  _397
REMARK  171  A    between atoms: _399  and  _401
REMARK  172  A    between atoms: _401  and  _402
REMARK  173  A    between atoms: _401  and  _404
REMARK  174  A    between atoms: _404  and  _405
REMARK  175  A    between atoms: _415  and  _417
REMARK  176  A    between atoms: _417  and  _418
REMARK  177  A    between atoms: _417  and  _420
REMARK  178  A    between atoms: _420  and  _421
REMARK  179  A    between atoms: _423  and  _425
REMARK  180  A    between atoms: _425  and  _426
REMARK  181  A    between atoms: _425  and  _428
REMARK  182  A    between atoms: _428  and  _429
REMARK  183  A    between atoms: _429  and  _430
REMARK  184  A    between atoms: _433  and  _435
REMARK  185  A    between atoms: _435  and  _436
REMARK  186  A    between atoms: _435  and  _438
REMARK  187  A    between atoms: _438  and  _439
REMARK  188  A    between atoms: _439  and  _440
REMARK  189  A    between atoms: _440  and  _441
REMARK                            x       y       z     vdW  Elec       q    Type
REMARK                         _______ _______ _______ _____ _____    ______ ____
ROOT
ATOM      1  O   HOH     1     -23.004 -29.479 -19.617  0.00  0.00    +0.000 OA
ENDROOT
TORSDOF 0
REMARK  Name = ../refined-set-2016/3t0b/3t0b_pocket.pdb
REMARK  189 active torsions:
REMARK  status: ('A' for Active; 'I' for Inactive)
REMARK    1  A    between atoms: _1  and  _3
REMARK    2  A    between atoms: _3  and  _4
REMARK    3  A    between atoms: _3  and  _6
REMARK    4  A    between atoms: _6  and  _7
REMARK    5  A    between atoms: _12  and  _13
REMARK    6  A    between atoms: _15  and  _17
REMARK    7  A    between atoms: _17  and  _18
REMARK    8  A    between atoms: _17  and  _20
REMARK    9  A    between atoms: _20  and  _21
REMARK   10  A    between atoms: _24  and  _26
REMARK   11  A    between atoms: _26  and  _27
REMARK   12  A    between atoms: _26  and  _29
REMARK   13  A    between atoms: _29  and  _30
REMARK   14  A    between atoms: _35  and  _37
REMARK   15  A    between atoms: _37  and  _38
REMARK   16  A    between atoms: _37  and  _40
REMARK   17  A    between atoms: _43  and  _45
REMARK   18  A    between atoms: _45  and  _46
REMARK   19  A    between atoms: _45  and  _48
REMARK   20  A    between atoms: _48  and  _49
REMARK   21  A    between atoms: _52  and  _54
REMARK   22  A    between atoms: _54  and  _55
REMARK   23  A    between atoms: _54  and  _57
REMARK   24  A    between atoms: _57  and  _58
REMARK   25  A    between atoms: _58  and  _59
REMARK   26  A    between atoms: _64  and  _66
REMARK   27  A    between atoms: _66  and  _67
REMARK   28  A    between atoms: _66  and  _69
REMARK   29  A    between atoms: _69  and  _70
REMARK   30  A    between atoms: _73  and  _75
REMARK   31  A    between atoms: _75  and  _76
REMARK   32  A    between atoms: _75  and  _78
REMARK   33  A    between atoms: _78  and  _79
REMARK   34  A    between atoms: _79  and  _80
REMARK   35  A    between atoms: _82  and  _84
REMARK   36  A    between atoms: _84  and  _85
REMARK   37  A    between atoms: _84  and  _87
REMARK   38  A    between atoms: _87  and  _88
REMARK   39  A    between atoms: _93  and  _95
REMARK   40  A    between atoms: _95  and  _96
REMARK   41  A    between atoms: _95  and  _98
REMARK   42  A    between atoms: _98  and  _99
REMARK   43  A    between atoms: _104  and  _106
REMARK   44  A    between atoms: _106  and  _107
REMARK   45  A    between atoms: _106  and  _109
REMARK   46  A    between atoms: _109  and  _110
REMARK   47  A    between atoms: _110  and  _111
REMARK   48  A    between atoms: _111  and  _112
REMARK   49  A    between atoms: _121  and  _123
REMARK   50  A    between atoms: _123  and  _124
REMARK   51  A    between atoms: _123  and  _126
REMARK   52  A    between atoms: _126  and  _127
REMARK   53  A    between atoms: _132  and  _134
REMARK   54  A    between atoms: _134  and  _135
REMARK   55  A    between atoms: _134  and  _137
REMARK   56  A    between atoms: _137  and  _138
REMARK   57  A    between atoms: _138  and  _139
REMARK   58  A    between atoms: _142  and  _144
REMARK   59  A    between atoms: _144  and  _145
REMARK   60  A    between atoms: _144  and  _147
REMARK   61  A    between atoms: _147  and  _148
REMARK   62  A    between atoms: _149  and  MG_450
REMARK   63  A    between atoms: _153  and  _155
REMARK   64  A    between atoms: _155  and  _156
REMARK   65  A    between atoms: _155  and  _158
REMARK   66  A    between atoms: _158  and  _159
REMARK   67  A    between atoms: _159  and  _160
REMARK   68  A    between atoms: _162  and  _164
REMARK   69  A    between atoms: _164  and  _165
REMARK   70  A    between atoms: _164  and  _167
REMARK   71  A    between atoms: _167  and  _168
REMARK   72  A    between atoms: _173  and  _175
REMARK   73  A    between atoms: _175  and  _176
REMARK   74  A    between atoms: _175  and  _178
REMARK   75  A    between atoms: _178  and  _179
REMARK   76  A    between atoms: _179  and  _180
REMARK   77  A    between atoms: _183  and  _185
REMARK   78  A    between atoms: _185  and  _186
REMARK   79  A    between atoms: _185  and  _188
REMARK   80  A    between atoms: _188  and  _189
REMARK   81  A    between atoms: _189  and  _190
REMARK   82  A    between atoms: _193  and  _195
REMARK   83  A    between atoms: _195  and  _196
REMARK   84  A    between atoms: _195  and  _198
REMARK   85  A    between atoms: _198  and  _199
REMARK   86  A    between atoms: _199  and  _200
REMARK   87  A    between atoms: _202  and  _204
REMARK   88  A    between atoms: _204  and  _205
REMARK   89  A    between atoms: _204  and  _207
REMARK   90  A    between atoms: _207  and  _208
REMARK   91  A    between atoms: _213  and  _214
REMARK   92  A    between atoms: _216  and  _218
REMARK   93  A    between atoms: _218  and  _219
REMARK   94  A    between atoms: _218  and  _221
REMARK   95  A    between atoms: _221  and  _222
REMARK   96  A    between atoms: _222  and  _223
REMARK   97  A    between atoms: _223  and  _224
REMARK   98  A    between atoms: _224  and  _225
REMARK   99  A    between atoms: _229  and  _231
REMARK  100  A    between atoms: _231  and  _232
REMARK  101  A    between atoms: _231  and  _234
REMARK  102  A    between atoms: _236  and  _238
REMARK  103  A    between atoms: _238  and  _239
REMARK  104  A    between atoms: _238  and  _241
REMARK  105  A    between atoms: _241  and  _242
REMARK  106  A    between atoms: _242  and  _243
REMARK  107  A    between atoms: _246  and  _248
REMARK  108  A    between atoms: _248  and  _249
REMARK  109  A    between atoms: _248  and  _251
REMARK  110  A    between atoms: _251  and  _252
REMARK  111  A    between atoms: _257  and  _259
REMARK  112  A    between atoms: _259  and  _260
REMARK  113  A    between atoms: _263  and  _265
REMARK  114  A    between atoms: _265  and  _266
REMARK  115  A    between atoms: _265  and  _268
REMARK  116  A    between atoms: _268  and  _269
REMARK  117  A    between atoms: _269  and  _270
REMARK  118  A    between atoms: _272  and  _274
REMARK  119  A    between atoms: _274  and  _275
REMARK  120  A    between atoms: _274  and  _277
REMARK  121  A    between atoms: _277  and  _278
REMARK  122  A    between atoms: _288  and  _290
REMARK  123  A    between atoms: _290  and  _291
REMARK  124  A    between atoms: _290  and  _293
REMARK  125  A    between atoms: _293  and  _294
REMARK  126  A    between atoms: _297  and  _299
REMARK  127  A    between atoms: _299  and  _300
REMARK  128  A    between atoms: _299  and  _302
REMARK  129  A    between atoms: _302  and  _303
REMARK  130  A    between atoms: _303  and  _304
REMARK  131  A    between atoms: _309  and  _311
REMARK  132  A    between atoms: _311  and  _312
REMARK  133  A    between atoms: _311  and  _314
REMARK  134  A    between atoms: _314  and  _315
REMARK  135  A    between atoms: _318  and  _320
REMARK  136  A    between atoms: _320  and  _321
REMARK  137  A    between atoms: _320  and  _323
REMARK  138  A    between atoms: _323  and  _324
REMARK  139  A    between atoms: _324  and  _325
REMARK  140  A    between atoms: _330  and  _332
REMARK  141  A    between atoms: _332  and  _333
REMARK  142  A    between atoms: _332  and  _335
REMARK  143  A    between atoms: _333  and  _334
REMARK  144  A    between atoms: _333  and  _342
REMARK  145  A    between atoms: _335  and  _336
REMARK  146  A    between atoms: _342  and  _344
REMARK  147  A    between atoms: _344  and  _345
REMARK  148  A    between atoms: _344  and  _347
REMARK  149  A    between atoms: _349  and  _351
REMARK  150  A    between atoms: _351  and  _352
REMARK  151  A    between atoms: _351  and  _354
REMARK  152  A    between atoms: _354  and  _355
REMARK  153  A    between atoms: _355  and  _356
REMARK  154  A    between atoms: _358  and  _360
REMARK  155  A    between atoms: _360  and  _361
REMARK  156  A    between atoms: _360  and  _363
REMARK  157  A    between atoms: _363  and  _364
REMARK  158  A    between atoms: _369  and  _371
REMARK  159  A    between atoms: _371  and  _372
REMARK  160  A    between atoms: _374  and  _376
REMARK  161  A    between atoms: _376  and  _377
REMARK  162  A    between atoms: _376  and  _379
REMARK  163  A    between atoms: _382  and  _384
REMARK  164  A    between atoms: _384  and  _385
REMARK  165  A    between atoms: _384  and  _387
REMARK  166  A    between atoms: _387  and  _388
REMARK  167  A    between atoms: _391  and  _393
REMARK  168  A    between atoms: _393  and  _394
REMARK  169  A    between atoms: _393  and  _396
REMARK  170  A    between atoms: _396  and  _397
REMARK  171  A    between atoms: _399  and  _401
REMARK  172  A    between atoms: _401  and  _402
REMARK  173  A    between atoms: _401  and  _404
REMARK  174  A    between atoms: _404  and  _405
REMARK  175  A    between atoms: _415  and  _417
REMARK  176  A    between atoms: _417  and  _418
REMARK  177  A    between atoms: _417  and  _420
REMARK  178  A    between atoms: _420  and  _421
REMARK  179  A    between atoms: _423  and  _425
REMARK  180  A    between atoms: _425  and  _426
REMARK  181  A    between atoms: _425  and  _428
REMARK  182  A    between atoms: _428  and  _429
REMARK  183  A    between atoms: _429  and  _430
REMARK  184  A    between atoms: _433  and  _435
REMARK  185  A    between atoms: _435  and  _436
REMARK  186  A    between atoms: _435  and  _438
REMARK  187  A    between atoms: _438  and  _439
REMARK  188  A    between atoms: _439  and  _440
REMARK  189  A    between atoms: _440  and  _441
REMARK                            x       y       z     vdW  Elec       q    Type
REMARK                         _______ _______ _______ _____ _____    ______ ____
ROOT
ATOM      1  O   HOH     1     -20.333 -29.415 -20.910  0.00  0.00    +0.000 OA
ENDROOT
TORSDOF 0
