REMARK  Name = ../refined-set-2016/3neo/3neo_pocket.pdb
REMARK  199 active torsions:
REMARK  status: ('A' for Active; 'I' for Inactive)
REMARK    1  A    between atoms: _1  and  _3
REMARK    2  A    between atoms: _3  and  _4
REMARK    3  A    between atoms: _3  and  _6
REMARK    4  A    between atoms: _6  and  _7
REMARK    5  A    between atoms: _7  and  _8
REMARK    6  A    between atoms: _10  and  _12
REMARK    7  A    between atoms: _12  and  _13
REMARK    8  A    between atoms: _12  and  _15
REMARK    9  A    between atoms: _18  and  _20
REMARK   10  A    between atoms: _20  and  _21
REMARK   11  A    between atoms: _20  and  _23
REMARK   12  A    between atoms: _23  and  _24
REMARK   13  A    between atoms: _24  and  _25
REMARK   14  A    between atoms: _25  and  _26
REMARK   15  A    between atoms: _26  and  _27
REMARK   16  A    between atoms: _31  and  _33
REMARK   17  A    between atoms: _33  and  _34
REMARK   18  A    between atoms: _33  and  _36
REMARK   19  A    between atoms: _39  and  _41
REMARK   20  A    between atoms: _41  and  _42
REMARK   21  A    between atoms: _41  and  _44
REMARK   22  A    between atoms: _44  and  _45
REMARK   23  A    between atoms: _48  and  _50
REMARK   24  A    between atoms: _50  and  _51
REMARK   25  A    between atoms: _50  and  _53
REMARK   26  A    between atoms: _53  and  _54
REMARK   27  A    between atoms: _57  and  _59
REMARK   28  A    between atoms: _59  and  _60
REMARK   29  A    between atoms: _63  and  _65
REMARK   30  A    between atoms: _65  and  _66
REMARK   31  A    between atoms: _65  and  _68
REMARK   32  A    between atoms: _68  and  _69
REMARK   33  A    between atoms: _71  and  _73
REMARK   34  A    between atoms: _73  and  _74
REMARK   35  A    between atoms: _76  and  _78
REMARK   36  A    between atoms: _78  and  _79
REMARK   37  A    between atoms: _78  and  _81
REMARK   38  A    between atoms: _81  and  _82
REMARK   39  A    between atoms: _82  and  _83
REMARK   40  A    between atoms: _86  and  _88
REMARK   41  A    between atoms: _88  and  _89
REMARK   42  A    between atoms: _88  and  _91
REMARK   43  A    between atoms: _91  and  _92
REMARK   44  A    between atoms: _95  and  _97
REMARK   45  A    between atoms: _97  and  _98
REMARK   46  A    between atoms: _97  and  _100
REMARK   47  A    between atoms: _100  and  _101
REMARK   48  A    between atoms: _106  and  _108
REMARK   49  A    between atoms: _108  and  _109
REMARK   50  A    between atoms: _108  and  _111
REMARK   51  A    between atoms: _111  and  _112
REMARK   52  A    between atoms: _115  and  _117
REMARK   53  A    between atoms: _117  and  _118
REMARK   54  A    between atoms: _117  and  _120
REMARK   55  A    between atoms: _120  and  _121
REMARK   56  A    between atoms: _124  and  _126
REMARK   57  A    between atoms: _126  and  _127
REMARK   58  A    between atoms: _130  and  _132
REMARK   59  A    between atoms: _132  and  _133
REMARK   60  A    between atoms: _136  and  _138
REMARK   61  A    between atoms: _138  and  _139
REMARK   62  A    between atoms: _138  and  _141
REMARK   63  A    between atoms: _141  and  _142
REMARK   64  A    between atoms: _145  and  _147
REMARK   65  A    between atoms: _147  and  _148
REMARK   66  A    between atoms: _147  and  _150
REMARK   67  A    between atoms: _150  and  _151
REMARK   68  A    between atoms: _154  and  _156
REMARK   69  A    between atoms: _156  and  _157
REMARK   70  A    between atoms: _156  and  _159
REMARK   71  A    between atoms: _159  and  _160
REMARK   72  A    between atoms: _165  and  _166
REMARK   73  A    between atoms: _168  and  _170
REMARK   74  A    between atoms: _170  and  _171
REMARK   75  A    between atoms: _170  and  _173
REMARK   76  A    between atoms: _173  and  _174
REMARK   77  A    between atoms: _176  and  _178
REMARK   78  A    between atoms: _178  and  _179
REMARK   79  A    between atoms: _178  and  _181
REMARK   80  A    between atoms: _181  and  _182
REMARK   81  A    between atoms: _185  and  _187
REMARK   82  A    between atoms: _187  and  _188
REMARK   83  A    between atoms: _187  and  _190
REMARK   84  A    between atoms: _190  and  _191
REMARK   85  A    between atoms: _194  and  _196
REMARK   86  A    between atoms: _196  and  _197
REMARK   87  A    between atoms: _200  and  _202
REMARK   88  A    between atoms: _202  and  _203
REMARK   89  A    between atoms: _202  and  _205
REMARK   90  A    between atoms: _208  and  _210
REMARK   91  A    between atoms: _210  and  _211
REMARK   92  A    between atoms: _210  and  _213
REMARK   93  A    between atoms: _213  and  _214
REMARK   94  A    between atoms: _216  and  _218
REMARK   95  A    between atoms: _218  and  _219
REMARK   96  A    between atoms: _218  and  _221
REMARK   97  A    between atoms: _221  and  _222
REMARK   98  A    between atoms: _227  and  _228
REMARK   99  A    between atoms: _230  and  _232
REMARK  100  A    between atoms: _232  and  _233
REMARK  101  A    between atoms: _232  and  _235
REMARK  102  A    between atoms: _235  and  _236
REMARK  103  A    between atoms: _238  and  _240
REMARK  104  A    between atoms: _240  and  _241
REMARK  105  A    between atoms: _240  and  _243
REMARK  106  A    between atoms: _243  and  _244
REMARK  107  A    between atoms: _244  and  _245
REMARK  108  A    between atoms: _247  and  _249
REMARK  109  A    between atoms: _249  and  _250
REMARK  110  A    between atoms: _249  and  _252
REMARK  111  A    between atoms: _255  and  _257
REMARK  112  A    between atoms: _257  and  _258
REMARK  113  A    between atoms: _257  and  _260
REMARK  114  A    between atoms: _260  and  _261
REMARK  115  A    between atoms: _261  and  _262
REMARK  116  A    between atoms: _262  and  _263
REMARK  117  A    between atoms: _263  and  _264
REMARK  118  A    between atoms: _268  and  _270
REMARK  119  A    between atoms: _270  and  _271
REMARK  120  A    between atoms: _270  and  _273
REMARK  121  A    between atoms: _276  and  _278
REMARK  122  A    between atoms: _278  and  _279
REMARK  123  A    between atoms: _278  and  _281
REMARK  124  A    between atoms: _281  and  _282
REMARK  125  A    between atoms: _285  and  _287
REMARK  126  A    between atoms: _287  and  _288
REMARK  127  A    between atoms: _287  and  _290
REMARK  128  A    between atoms: _290  and  _291
REMARK  129  A    between atoms: _294  and  _296
REMARK  130  A    between atoms: _296  and  _297
REMARK  131  A    between atoms: _296  and  _299
REMARK  132  A    between atoms: _299  and  _300
REMARK  133  A    between atoms: _302  and  _304
REMARK  134  A    between atoms: _304  and  _305
REMARK  135  A    between atoms: _307  and  _309
REMARK  136  A    between atoms: _309  and  _310
REMARK  137  A    between atoms: _309  and  _312
REMARK  138  A    between atoms: _312  and  _313
REMARK  139  A    between atoms: _313  and  _314
REMARK  140  A    between atoms: _317  and  _319
REMARK  141  A    between atoms: _319  and  _320
REMARK  142  A    between atoms: _319  and  _322
REMARK  143  A    between atoms: _322  and  _323
REMARK  144  A    between atoms: _326  and  _328
REMARK  145  A    between atoms: _328  and  _329
REMARK  146  A    between atoms: _328  and  _331
REMARK  147  A    between atoms: _331  and  _332
REMARK  148  A    between atoms: _335  and  _337
REMARK  149  A    between atoms: _337  and  _338
REMARK  150  A    between atoms: _341  and  _343
REMARK  151  A    between atoms: _343  and  _344
REMARK  152  A    between atoms: _347  and  _349
REMARK  153  A    between atoms: _349  and  _350
REMARK  154  A    between atoms: _349  and  _352
REMARK  155  A    between atoms: _352  and  _353
REMARK  156  A    between atoms: _356  and  _358
REMARK  157  A    between atoms: _358  and  _359
REMARK  158  A    between atoms: _358  and  _361
REMARK  159  A    between atoms: _361  and  _362
REMARK  160  A    between atoms: _365  and  _367
REMARK  161  A    between atoms: _367  and  _368
REMARK  162  A    between atoms: _367  and  _370
REMARK  163  A    between atoms: _370  and  _371
REMARK  164  A    between atoms: _376  and  _377
REMARK  165  A    between atoms: _379  and  _381
REMARK  166  A    between atoms: _381  and  _382
REMARK  167  A    between atoms: _381  and  _384
REMARK  168  A    between atoms: _384  and  _385
REMARK  169  A    between atoms: _387  and  _389
REMARK  170  A    between atoms: _389  and  _390
REMARK  171  A    between atoms: _389  and  _392
REMARK  172  A    between atoms: _392  and  _393
REMARK  173  A    between atoms: _396  and  _398
REMARK  174  A    between atoms: _398  and  _399
REMARK  175  A    between atoms: _398  and  _401
REMARK  176  A    between atoms: _401  and  _402
REMARK  177  A    between atoms: _405  and  _407
REMARK  178  A    between atoms: _407  and  _408
REMARK  179  A    between atoms: _411  and  _413
REMARK  180  A    between atoms: _413  and  _414
REMARK  181  A    between atoms: _413  and  _416
REMARK  182  A    between atoms: _419  and  _421
REMARK  183  A    between atoms: _421  and  _422
REMARK  184  A    between atoms: _421  and  _424
REMARK  185  A    between atoms: _424  and  _425
REMARK  186  A    between atoms: _430  and  _431
REMARK  187  A    between atoms: _433  and  _435
REMARK  188  A    between atoms: _435  and  _436
REMARK  189  A    between atoms: _435  and  _438
REMARK  190  A    between atoms: _438  and  _439
REMARK  191  A    between atoms: _441  and  _443
REMARK  192  A    between atoms: _443  and  _444
REMARK  193  A    between atoms: _443  and  _446
REMARK  194  A    between atoms: _446  and  _447
REMARK  195  A    between atoms: _452  and  _453
REMARK  196  A    between atoms: _455  and  _457
REMARK  197  A    between atoms: _457  and  _458
REMARK  198  A    between atoms: _457  and  _460
REMARK  199  A    between atoms: _460  and  _461
REMARK                            x       y       z     vdW  Elec       q    Type
REMARK                         _______ _______ _______ _____ _____    ______ ____
ROOT
ATOM      1  C   LYS A   3      18.629   6.190 -28.086  0.00  0.00    +0.241 C 
ATOM      2  O   LYS A   3      19.307   6.083 -27.045  0.00  0.00    -0.273 OA
ATOM      3  N   VAL A   4      17.293   6.151 -28.095  0.00  0.00    -0.297 N 
ATOM      4  H   VAL A   4      16.777   6.179 -28.997  0.00  0.00    +0.150 HD
ENDROOT
BRANCH   3   5
ATOM      5  CA  VAL A   4      16.563   6.069 -26.840  0.00  0.00    +0.149 C 
BRANCH   5   6
ATOM      6  C   VAL A   4      15.554   4.912 -26.854  0.00  0.00    +0.241 C 
ATOM      7  N   LEU A   5      15.615   4.098 -25.797  0.00  0.00    -0.297 N 
ATOM      8  H   LEU A   5      16.374   4.255 -25.103  0.00  0.00    +0.150 HD
ATOM      9  O   VAL A   4      14.754   4.771 -27.807  0.00  0.00    -0.273 OA
BRANCH   7  10
ATOM     10  CA  LEU A   5      14.677   2.996 -25.555  0.00  0.00    +0.149 C 
BRANCH  10  11
ATOM     11  C   LEU A   5      13.804   3.211 -24.326  0.00  0.00    +0.241 C 
ATOM     12  O   LEU A   5      14.213   3.876 -23.356  0.00  0.00    -0.273 OA
ATOM     13  N   ASP A   6      12.618   2.605 -24.374  0.00  0.00    -0.297 N 
ATOM     14  H   ASP A   6      12.373   2.098 -25.248  0.00  0.00    +0.150 HD
BRANCH  13  15
ATOM     15  CA  ASP A   6      11.644   2.598 -23.303  0.00  0.00    +0.160 C 
BRANCH  15  16
ATOM     16  C   ASP A   6      11.630   1.216 -22.614  0.00  0.00    +0.241 C 
ATOM     17  N   ALA A   7      12.074   1.154 -21.348  0.00  0.00    -0.298 N 
ATOM     18  H   ALA A   7      12.371   2.033 -20.877  0.00  0.00    +0.150 HD
ATOM     19  O   ASP A   6      11.256   0.222 -23.252  0.00  0.00    -0.273 OA
BRANCH  17  20
ATOM     20  CA  ALA A   7      12.155  -0.109 -20.605  0.00  0.00    +0.137 C 
ATOM     21  CB  ALA A   7      13.198  -0.012 -19.465  0.00  0.00    +0.030 C 
BRANCH  20  22
ATOM     22  C   ALA A   7      10.798  -0.603 -20.070  0.00  0.00    +0.227 C 
ATOM     23  O   ALA A   7      10.719  -1.718 -19.563  0.00  0.00    -0.286 OA
ENDBRANCH  20  22
ENDBRANCH  17  20
ENDBRANCH  15  16
BRANCH  15  24
ATOM     24  CB  ASP A   6      10.281   2.901 -23.936  0.00  0.00    +0.143 C 
BRANCH  24  25
ATOM     25  CG  ASP A   6       9.163   2.946 -22.939  0.00  0.00    +0.367 C 
ATOM     26  OD2 ASP A   6       9.171   2.161 -21.967  0.00  0.00    -0.246 OA
ATOM     27  OD1 ASP A   6       8.234   3.740 -23.165  0.00  0.00    -0.246 OA
ENDBRANCH  24  25
ENDBRANCH  15  24
ENDBRANCH  13  15
ENDBRANCH  10  11
BRANCH  10  28
ATOM     28  CB  LEU A   5      15.443   1.673 -25.403  0.00  0.00    +0.029 C 
BRANCH  28  29
ATOM     29  CG  LEU A   5      16.358   1.273 -26.584  0.00  0.00    +0.002 C 
ATOM     30  CD2 LEU A   5      16.960  -0.086 -26.335  0.00  0.00    +0.000 C 
ATOM     31  CD1 LEU A   5      15.580   1.250 -27.889  0.00  0.00    +0.000 C 
ENDBRANCH  28  29
ENDBRANCH  10  28
ENDBRANCH   7  10
ENDBRANCH   5   6
BRANCH   5  32
ATOM     32  CB  VAL A   4      15.833   7.376 -26.523  0.00  0.00    +0.027 C 
ATOM     33  CG2 VAL A   4      15.334   7.379 -25.056  0.00  0.00    +0.002 C 
ATOM     34  CG1 VAL A   4      16.723   8.563 -26.811  0.00  0.00    +0.002 C 
ENDBRANCH   5  32
ENDBRANCH   3   5
BRANCH   1  35
ATOM     35  CA  LYS A   3      19.316   6.388 -29.419  0.00  0.00    +0.149 C 
BRANCH  35  37
ATOM     36  C   VAL A   2      20.264   8.522 -30.162  0.00  0.00    +0.241 C 
ATOM     37  N   LYS A   3      20.275   7.501 -29.295  0.00  0.00    -0.297 N 
ATOM     38  H   LYS A   3      20.971   7.493 -28.522  0.00  0.00    +0.150 HD
ATOM     39  O   VAL A   2      19.472   8.595 -31.122  0.00  0.00    -0.273 OA
BRANCH  36  40
ATOM     40  CA  VAL A   2      21.320   9.598 -29.954  0.00  0.00    +0.148 C 
BRANCH  40  43
ATOM     41  C   MET A   1      23.224   9.825 -31.403  0.00  0.00    +0.238 C 
ATOM     42  O   MET A   1      23.996   9.506 -30.499  0.00  0.00    -0.274 OA
ATOM     43  N   VAL A   2      21.920   9.888 -31.239  0.00  0.00    -0.297 N 
ATOM     44  H   VAL A   2      21.313  10.149 -32.042  0.00  0.00    +0.150 HD
BRANCH  41  45
ATOM     45  CA  MET A   1      23.738  10.190 -32.791  0.00  0.00    +0.146 C 
BRANCH  45  46
ATOM     46  N   MET A   1      25.022  10.848 -32.625  0.00  0.00    -0.238 NA
ATOM     47  H   MET A   1      25.689  10.468 -31.923  0.00  0.00    +0.142 HD
ENDBRANCH  45  46
BRANCH  45  48
ATOM     48  CB  MET A   1      23.875   8.923 -33.642  0.00  0.00    +0.038 C 
BRANCH  48  49
ATOM     49  CG  MET A   1      22.518   8.272 -34.060  0.00  0.00    +0.060 C 
BRANCH  49  50
ATOM     50  SD  MET A   1      21.895   6.956 -32.954  0.00  0.00    -0.139 S 
ATOM     51  CE  MET A   1      22.864   5.583 -33.595  0.00  0.00    +0.069 C 
ENDBRANCH  49  50
ENDBRANCH  48  49
ENDBRANCH  45  48
ENDBRANCH  41  45
ENDBRANCH  40  43
BRANCH  40  52
ATOM     52  CB  VAL A   2      20.670  10.850 -29.332  0.00  0.00    +0.027 C 
ATOM     53  CG2 VAL A   2      19.976  10.484 -27.974  0.00  0.00    +0.002 C 
ATOM     54  CG1 VAL A   2      21.705  11.958 -29.167  0.00  0.00    +0.002 C 
ENDBRANCH  40  52
ENDBRANCH  36  40
ENDBRANCH  35  37
BRANCH  35  55
ATOM     55  CB  LYS A   3      20.047   5.119 -29.818  0.00  0.00    +0.029 C 
BRANCH  55  56
ATOM     56  CG  LYS A   3      19.183   3.845 -29.678  0.00  0.00    +0.000 C 
BRANCH  56  57
ATOM     57  CD  LYS A   3      18.685   3.383 -31.003  0.00  0.00    -0.024 C 
BRANCH  57  58
ATOM     58  CE  LYS A   3      17.792   2.131 -30.867  0.00  0.00    -0.086 C 
BRANCH  58  59
ATOM     59  NZ  LYS A   3      17.227   1.808 -32.193  0.00  0.00    +0.380 N 
ATOM     60  HZ1 LYS A   3      16.623   0.965 -32.115  0.00  0.00    -0.089 HD
ATOM     61  HZ2 LYS A   3      16.661   2.612 -32.532  0.00  0.00    -0.089 HD
ATOM     62  HZ3 LYS A   3      18.001   1.620 -32.862  0.00  0.00    -0.089 HD
ENDBRANCH  58  59
ENDBRANCH  57  58
ENDBRANCH  56  57
ENDBRANCH  55  56
ENDBRANCH  35  55
ENDBRANCH   1  35
TORSDOF 28
REMARK  Name = ../refined-set-2016/3neo/3neo_pocket.pdb
REMARK  199 active torsions:
REMARK  status: ('A' for Active; 'I' for Inactive)
REMARK    1  A    between atoms: _1  and  _3
REMARK    2  A    between atoms: _3  and  _4
REMARK    3  A    between atoms: _3  and  _6
REMARK    4  A    between atoms: _6  and  _7
REMARK    5  A    between atoms: _7  and  _8
REMARK    6  A    between atoms: _10  and  _12
REMARK    7  A    between atoms: _12  and  _13
REMARK    8  A    between atoms: _12  and  _15
REMARK    9  A    between atoms: _18  and  _20
REMARK   10  A    between atoms: _20  and  _21
REMARK   11  A    between atoms: _20  and  _23
REMARK   12  A    between atoms: _23  and  _24
REMARK   13  A    between atoms: _24  and  _25
REMARK   14  A    between atoms: _25  and  _26
REMARK   15  A    between atoms: _26  and  _27
REMARK   16  A    between atoms: _31  and  _33
REMARK   17  A    between atoms: _33  and  _34
REMARK   18  A    between atoms: _33  and  _36
REMARK   19  A    between atoms: _39  and  _41
REMARK   20  A    between atoms: _41  and  _42
REMARK   21  A    between atoms: _41  and  _44
REMARK   22  A    between atoms: _44  and  _45
REMARK   23  A    between atoms: _48  and  _50
REMARK   24  A    between atoms: _50  and  _51
REMARK   25  A    between atoms: _50  and  _53
REMARK   26  A    between atoms: _53  and  _54
REMARK   27  A    between atoms: _57  and  _59
REMARK   28  A    between atoms: _59  and  _60
REMARK   29  A    between atoms: _63  and  _65
REMARK   30  A    between atoms: _65  and  _66
REMARK   31  A    between atoms: _65  and  _68
REMARK   32  A    between atoms: _68  and  _69
REMARK   33  A    between atoms: _71  and  _73
REMARK   34  A    between atoms: _73  and  _74
REMARK   35  A    between atoms: _76  and  _78
REMARK   36  A    between atoms: _78  and  _79
REMARK   37  A    between atoms: _78  and  _81
REMARK   38  A    between atoms: _81  and  _82
REMARK   39  A    between atoms: _82  and  _83
REMARK   40  A    between atoms: _86  and  _88
REMARK   41  A    between atoms: _88  and  _89
REMARK   42  A    between atoms: _88  and  _91
REMARK   43  A    between atoms: _91  and  _92
REMARK   44  A    between atoms: _95  and  _97
REMARK   45  A    between atoms: _97  and  _98
REMARK   46  A    between atoms: _97  and  _100
REMARK   47  A    between atoms: _100  and  _101
REMARK   48  A    between atoms: _106  and  _108
REMARK   49  A    between atoms: _108  and  _109
REMARK   50  A    between atoms: _108  and  _111
REMARK   51  A    between atoms: _111  and  _112
REMARK   52  A    between atoms: _115  and  _117
REMARK   53  A    between atoms: _117  and  _118
REMARK   54  A    between atoms: _117  and  _120
REMARK   55  A    between atoms: _120  and  _121
REMARK   56  A    between atoms: _124  and  _126
REMARK   57  A    between atoms: _126  and  _127
REMARK   58  A    between atoms: _130  and  _132
REMARK   59  A    between atoms: _132  and  _133
REMARK   60  A    between atoms: _136  and  _138
REMARK   61  A    between atoms: _138  and  _139
REMARK   62  A    between atoms: _138  and  _141
REMARK   63  A    between atoms: _141  and  _142
REMARK   64  A    between atoms: _145  and  _147
REMARK   65  A    between atoms: _147  and  _148
REMARK   66  A    between atoms: _147  and  _150
REMARK   67  A    between atoms: _150  and  _151
REMARK   68  A    between atoms: _154  and  _156
REMARK   69  A    between atoms: _156  and  _157
REMARK   70  A    between atoms: _156  and  _159
REMARK   71  A    between atoms: _159  and  _160
REMARK   72  A    between atoms: _165  and  _166
REMARK   73  A    between atoms: _168  and  _170
REMARK   74  A    between atoms: _170  and  _171
REMARK   75  A    between atoms: _170  and  _173
REMARK   76  A    between atoms: _173  and  _174
REMARK   77  A    between atoms: _176  and  _178
REMARK   78  A    between atoms: _178  and  _179
REMARK   79  A    between atoms: _178  and  _181
REMARK   80  A    between atoms: _181  and  _182
REMARK   81  A    between atoms: _185  and  _187
REMARK   82  A    between atoms: _187  and  _188
REMARK   83  A    between atoms: _187  and  _190
REMARK   84  A    between atoms: _190  and  _191
REMARK   85  A    between atoms: _194  and  _196
REMARK   86  A    between atoms: _196  and  _197
REMARK   87  A    between atoms: _200  and  _202
REMARK   88  A    between atoms: _202  and  _203
REMARK   89  A    between atoms: _202  and  _205
REMARK   90  A    between atoms: _208  and  _210
REMARK   91  A    between atoms: _210  and  _211
REMARK   92  A    between atoms: _210  and  _213
REMARK   93  A    between atoms: _213  and  _214
REMARK   94  A    between atoms: _216  and  _218
REMARK   95  A    between atoms: _218  and  _219
REMARK   96  A    between atoms: _218  and  _221
REMARK   97  A    between atoms: _221  and  _222
REMARK   98  A    between atoms: _227  and  _228
REMARK   99  A    between atoms: _230  and  _232
REMARK  100  A    between atoms: _232  and  _233
REMARK  101  A    between atoms: _232  and  _235
REMARK  102  A    between atoms: _235  and  _236
REMARK  103  A    between atoms: _238  and  _240
REMARK  104  A    between atoms: _240  and  _241
REMARK  105  A    between atoms: _240  and  _243
REMARK  106  A    between atoms: _243  and  _244
REMARK  107  A    between atoms: _244  and  _245
REMARK  108  A    between atoms: _247  and  _249
REMARK  109  A    between atoms: _249  and  _250
REMARK  110  A    between atoms: _249  and  _252
REMARK  111  A    between atoms: _255  and  _257
REMARK  112  A    between atoms: _257  and  _258
REMARK  113  A    between atoms: _257  and  _260
REMARK  114  A    between atoms: _260  and  _261
REMARK  115  A    between atoms: _261  and  _262
REMARK  116  A    between atoms: _262  and  _263
REMARK  117  A    between atoms: _263  and  _264
REMARK  118  A    between atoms: _268  and  _270
REMARK  119  A    between atoms: _270  and  _271
REMARK  120  A    between atoms: _270  and  _273
REMARK  121  A    between atoms: _276  and  _278
REMARK  122  A    between atoms: _278  and  _279
REMARK  123  A    between atoms: _278  and  _281
REMARK  124  A    between atoms: _281  and  _282
REMARK  125  A    between atoms: _285  and  _287
REMARK  126  A    between atoms: _287  and  _288
REMARK  127  A    between atoms: _287  and  _290
REMARK  128  A    between atoms: _290  and  _291
REMARK  129  A    between atoms: _294  and  _296
REMARK  130  A    between atoms: _296  and  _297
REMARK  131  A    between atoms: _296  and  _299
REMARK  132  A    between atoms: _299  and  _300
REMARK  133  A    between atoms: _302  and  _304
REMARK  134  A    between atoms: _304  and  _305
REMARK  135  A    between atoms: _307  and  _309
REMARK  136  A    between atoms: _309  and  _310
REMARK  137  A    between atoms: _309  and  _312
REMARK  138  A    between atoms: _312  and  _313
REMARK  139  A    between atoms: _313  and  _314
REMARK  140  A    between atoms: _317  and  _319
REMARK  141  A    between atoms: _319  and  _320
REMARK  142  A    between atoms: _319  and  _322
REMARK  143  A    between atoms: _322  and  _323
REMARK  144  A    between atoms: _326  and  _328
REMARK  145  A    between atoms: _328  and  _329
REMARK  146  A    between atoms: _328  and  _331
REMARK  147  A    between atoms: _331  and  _332
REMARK  148  A    between atoms: _335  and  _337
REMARK  149  A    between atoms: _337  and  _338
REMARK  150  A    between atoms: _341  and  _343
REMARK  151  A    between atoms: _343  and  _344
REMARK  152  A    between atoms: _347  and  _349
REMARK  153  A    between atoms: _349  and  _350
REMARK  154  A    between atoms: _349  and  _352
REMARK  155  A    between atoms: _352  and  _353
REMARK  156  A    between atoms: _356  and  _358
REMARK  157  A    between atoms: _358  and  _359
REMARK  158  A    between atoms: _358  and  _361
REMARK  159  A    between atoms: _361  and  _362
REMARK  160  A    between atoms: _365  and  _367
REMARK  161  A    between atoms: _367  and  _368
REMARK  162  A    between atoms: _367  and  _370
REMARK  163  A    between atoms: _370  and  _371
REMARK  164  A    between atoms: _376  and  _377
REMARK  165  A    between atoms: _379  and  _381
REMARK  166  A    between atoms: _381  and  _382
REMARK  167  A    between atoms: _381  and  _384
REMARK  168  A    between atoms: _384  and  _385
REMARK  169  A    between atoms: _387  and  _389
REMARK  170  A    between atoms: _389  and  _390
REMARK  171  A    between atoms: _389  and  _392
REMARK  172  A    between atoms: _392  and  _393
REMARK  173  A    between atoms: _396  and  _398
REMARK  174  A    between atoms: _398  and  _399
REMARK  175  A    between atoms: _398  and  _401
REMARK  176  A    between atoms: _401  and  _402
REMARK  177  A    between atoms: _405  and  _407
REMARK  178  A    between atoms: _407  and  _408
REMARK  179  A    between atoms: _411  and  _413
REMARK  180  A    between atoms: _413  and  _414
REMARK  181  A    between atoms: _413  and  _416
REMARK  182  A    between atoms: _419  and  _421
REMARK  183  A    between atoms: _421  and  _422
REMARK  184  A    between atoms: _421  and  _424
REMARK  185  A    between atoms: _424  and  _425
REMARK  186  A    between atoms: _430  and  _431
REMARK  187  A    between atoms: _433  and  _435
REMARK  188  A    between atoms: _435  and  _436
REMARK  189  A    between atoms: _435  and  _438
REMARK  190  A    between atoms: _438  and  _439
REMARK  191  A    between atoms: _441  and  _443
REMARK  192  A    between atoms: _443  and  _444
REMARK  193  A    between atoms: _443  and  _446
REMARK  194  A    between atoms: _446  and  _447
REMARK  195  A    between atoms: _452  and  _453
REMARK  196  A    between atoms: _455  and  _457
REMARK  197  A    between atoms: _457  and  _458
REMARK  198  A    between atoms: _457  and  _460
REMARK  199  A    between atoms: _460  and  _461
REMARK                            x       y       z     vdW  Elec       q    Type
REMARK                         _______ _______ _______ _____ _____    ______ ____
ROOT
ATOM      1  C   GLU A   3      16.931   8.867 -33.657  0.00  0.00    +0.241 C 
ATOM      2  N   LEU A   4      17.992   9.587 -33.377  0.00  0.00    -0.297 N 
ATOM      3  H   LEU A   4      18.765   9.140 -32.844  0.00  0.00    +0.150 HD
ATOM      4  O   GLU A   3      15.975   9.300 -34.213  0.00  0.00    -0.273 OA
ENDROOT
BRANCH   2   5
ATOM      5  CA  LEU A   4      18.139  10.958 -33.768  0.00  0.00    +0.149 C 
BRANCH   5   6
ATOM      6  C   LEU A   4      19.443  11.136 -34.487  0.00  0.00    +0.241 C 
ATOM      7  O   LEU A   4      20.469  11.111 -33.909  0.00  0.00    -0.273 OA
ATOM      8  N   HIS A   5      19.338  11.244 -35.782  0.00  0.00    -0.298 N 
ATOM      9  H   HIS A   5      18.390  11.200 -36.207  0.00  0.00    +0.150 HD
BRANCH   8  10
ATOM     10  CA  HIS A   5      20.499  11.425 -36.674  0.00  0.00    +0.143 C 
BRANCH  10  11
ATOM     11  C   HIS A   5      20.549  12.876 -37.180  0.00  0.00    +0.227 C 
ATOM     12  O   HIS A   5      19.567  13.621 -37.069  0.00  0.00    -0.286 OA
ENDBRANCH  10  11
BRANCH  10  13
ATOM     13  CB  HIS A   5      20.372  10.514 -37.922  0.00  0.00    +0.075 C 
BRANCH  13  14
ATOM     14  CG  HIS A   5      20.383   9.052 -37.617  0.00  0.00    +0.082 A 
ATOM     15  CD2 HIS A   5      19.374   8.185 -37.365  0.00  0.00    +0.115 A 
ATOM     16  NE2 HIS A   5      19.945   6.954 -37.132  0.00  0.00    -0.221 NA
ATOM     17  CE1 HIS A   5      21.259   7.065 -37.226  0.00  0.00    +0.199 A 
ATOM     18  ND1 HIS A   5      21.551   8.322 -37.512  0.00  0.00    -0.227 NA
ENDBRANCH  13  14
ENDBRANCH  10  13
ENDBRANCH   8  10
ENDBRANCH   5   6
BRANCH   5  19
ATOM     19  CB  LEU A   4      18.039  11.912 -32.609  0.00  0.00    +0.029 C 
BRANCH  19  20
ATOM     20  CG  LEU A   4      18.327  13.379 -32.815  0.00  0.00    +0.002 C 
ATOM     21  CD2 LEU A   4      17.937  14.075 -31.618  0.00  0.00    +0.000 C 
ATOM     22  CD1 LEU A   4      17.576  13.936 -33.998  0.00  0.00    +0.000 C 
ENDBRANCH  19  20
ENDBRANCH   5  19
ENDBRANCH   2   5
BRANCH   1  23
ATOM     23  CA  GLU A   3      17.003   7.404 -33.250  0.00  0.00    +0.149 C 
BRANCH  23  26
ATOM     24  C   GLY A   2      15.444   6.548 -31.561  0.00  0.00    +0.243 C 
ATOM     25  O   GLY A   2      16.189   6.745 -30.684  0.00  0.00    -0.273 OA
ATOM     26  N   GLU A   3      15.732   6.808 -32.818  0.00  0.00    -0.297 N 
ATOM     27  H   GLU A   3      15.023   6.580 -33.544  0.00  0.00    +0.150 HD
BRANCH  24  28
ATOM     28  CA  GLY A   2      14.097   5.929 -31.269  0.00  0.00    +0.176 C 
BRANCH  28  30
ATOM     29  C   SER A   1      13.873   4.238 -32.988  0.00  0.00    +0.241 C 
ATOM     30  N   GLY A   2      13.461   5.344 -32.414  0.00  0.00    -0.295 N 
ATOM     31  H   GLY A   2      12.627   5.823 -32.811  0.00  0.00    +0.150 HD
ATOM     32  O   SER A   1      14.779   3.608 -32.569  0.00  0.00    -0.274 OA
BRANCH  29  33
ATOM     33  CA  SER A   1      13.128   3.795 -34.265  0.00  0.00    +0.174 C 
BRANCH  33  34
ATOM     34  N   SER A   1      12.200   4.764 -34.791  0.00  0.00    -0.236 NA
ATOM     35  H   SER A   1      12.531   5.491 -35.458  0.00  0.00    +0.142 HD
ENDBRANCH  33  34
BRANCH  33  36
ATOM     36  CB  SER A   1      14.087   3.375 -35.355  0.00  0.00    +0.163 C 
BRANCH  36  37
ATOM     37  OG  SER A   1      14.876   4.453 -35.746  0.00  0.00    -0.380 OA
ATOM     38  H   SER A   1      14.296   5.179 -36.087  0.00  0.00    +0.211 HD
ENDBRANCH  36  37
ENDBRANCH  33  36
ENDBRANCH  29  33
ENDBRANCH  28  30
ENDBRANCH  24  28
ENDBRANCH  23  26
BRANCH  23  39
ATOM     39  CB  GLU A   3      17.638   6.588 -34.368  0.00  0.00    +0.041 C 
BRANCH  39  40
ATOM     40  CG  GLU A   3      17.992   5.221 -33.922  0.00  0.00    +0.116 C 
BRANCH  40  41
ATOM     41  CD  GLU A   3      18.313   4.280 -35.012  0.00  0.00    +0.365 C 
ATOM     42  OE2 GLU A   3      18.470   3.129 -34.726  0.00  0.00    -0.246 OA
ATOM     43  OE1 GLU A   3      18.388   4.658 -36.148  0.00  0.00    -0.246 OA
ENDBRANCH  40  41
ENDBRANCH  39  40
ENDBRANCH  23  39
ENDBRANCH   1  23
TORSDOF 19
REMARK  Name = ../refined-set-2016/3neo/3neo_pocket.pdb
REMARK  199 active torsions:
REMARK  status: ('A' for Active; 'I' for Inactive)
REMARK    1  A    between atoms: _1  and  _3
REMARK    2  A    between atoms: _3  and  _4
REMARK    3  A    between atoms: _3  and  _6
REMARK    4  A    between atoms: _6  and  _7
REMARK    5  A    between atoms: _7  and  _8
REMARK    6  A    between atoms: _10  and  _12
REMARK    7  A    between atoms: _12  and  _13
REMARK    8  A    between atoms: _12  and  _15
REMARK    9  A    between atoms: _18  and  _20
REMARK   10  A    between atoms: _20  and  _21
REMARK   11  A    between atoms: _20  and  _23
REMARK   12  A    between atoms: _23  and  _24
REMARK   13  A    between atoms: _24  and  _25
REMARK   14  A    between atoms: _25  and  _26
REMARK   15  A    between atoms: _26  and  _27
REMARK   16  A    between atoms: _31  and  _33
REMARK   17  A    between atoms: _33  and  _34
REMARK   18  A    between atoms: _33  and  _36
REMARK   19  A    between atoms: _39  and  _41
REMARK   20  A    between atoms: _41  and  _42
REMARK   21  A    between atoms: _41  and  _44
REMARK   22  A    between atoms: _44  and  _45
REMARK   23  A    between atoms: _48  and  _50
REMARK   24  A    between atoms: _50  and  _51
REMARK   25  A    between atoms: _50  and  _53
REMARK   26  A    between atoms: _53  and  _54
REMARK   27  A    between atoms: _57  and  _59
REMARK   28  A    between atoms: _59  and  _60
REMARK   29  A    between atoms: _63  and  _65
REMARK   30  A    between atoms: _65  and  _66
REMARK   31  A    between atoms: _65  and  _68
REMARK   32  A    between atoms: _68  and  _69
REMARK   33  A    between atoms: _71  and  _73
REMARK   34  A    between atoms: _73  and  _74
REMARK   35  A    between atoms: _76  and  _78
REMARK   36  A    between atoms: _78  and  _79
REMARK   37  A    between atoms: _78  and  _81
REMARK   38  A    between atoms: _81  and  _82
REMARK   39  A    between atoms: _82  and  _83
REMARK   40  A    between atoms: _86  and  _88
REMARK   41  A    between atoms: _88  and  _89
REMARK   42  A    between atoms: _88  and  _91
REMARK   43  A    between atoms: _91  and  _92
REMARK   44  A    between atoms: _95  and  _97
REMARK   45  A    between atoms: _97  and  _98
REMARK   46  A    between atoms: _97  and  _100
REMARK   47  A    between atoms: _100  and  _101
REMARK   48  A    between atoms: _106  and  _108
REMARK   49  A    between atoms: _108  and  _109
REMARK   50  A    between atoms: _108  and  _111
REMARK   51  A    between atoms: _111  and  _112
REMARK   52  A    between atoms: _115  and  _117
REMARK   53  A    between atoms: _117  and  _118
REMARK   54  A    between atoms: _117  and  _120
REMARK   55  A    between atoms: _120  and  _121
REMARK   56  A    between atoms: _124  and  _126
REMARK   57  A    between atoms: _126  and  _127
REMARK   58  A    between atoms: _130  and  _132
REMARK   59  A    between atoms: _132  and  _133
REMARK   60  A    between atoms: _136  and  _138
REMARK   61  A    between atoms: _138  and  _139
REMARK   62  A    between atoms: _138  and  _141
REMARK   63  A    between atoms: _141  and  _142
REMARK   64  A    between atoms: _145  and  _147
REMARK   65  A    between atoms: _147  and  _148
REMARK   66  A    between atoms: _147  and  _150
REMARK   67  A    between atoms: _150  and  _151
REMARK   68  A    between atoms: _154  and  _156
REMARK   69  A    between atoms: _156  and  _157
REMARK   70  A    between atoms: _156  and  _159
REMARK   71  A    between atoms: _159  and  _160
REMARK   72  A    between atoms: _165  and  _166
REMARK   73  A    between atoms: _168  and  _170
REMARK   74  A    between atoms: _170  and  _171
REMARK   75  A    between atoms: _170  and  _173
REMARK   76  A    between atoms: _173  and  _174
REMARK   77  A    between atoms: _176  and  _178
REMARK   78  A    between atoms: _178  and  _179
REMARK   79  A    between atoms: _178  and  _181
REMARK   80  A    between atoms: _181  and  _182
REMARK   81  A    between atoms: _185  and  _187
REMARK   82  A    between atoms: _187  and  _188
REMARK   83  A    between atoms: _187  and  _190
REMARK   84  A    between atoms: _190  and  _191
REMARK   85  A    between atoms: _194  and  _196
REMARK   86  A    between atoms: _196  and  _197
REMARK   87  A    between atoms: _200  and  _202
REMARK   88  A    between atoms: _202  and  _203
REMARK   89  A    between atoms: _202  and  _205
REMARK   90  A    between atoms: _208  and  _210
REMARK   91  A    between atoms: _210  and  _211
REMARK   92  A    between atoms: _210  and  _213
REMARK   93  A    between atoms: _213  and  _214
REMARK   94  A    between atoms: _216  and  _218
REMARK   95  A    between atoms: _218  and  _219
REMARK   96  A    between atoms: _218  and  _221
REMARK   97  A    between atoms: _221  and  _222
REMARK   98  A    between atoms: _227  and  _228
REMARK   99  A    between atoms: _230  and  _232
REMARK  100  A    between atoms: _232  and  _233
REMARK  101  A    between atoms: _232  and  _235
REMARK  102  A    between atoms: _235  and  _236
REMARK  103  A    between atoms: _238  and  _240
REMARK  104  A    between atoms: _240  and  _241
REMARK  105  A    between atoms: _240  and  _243
REMARK  106  A    between atoms: _243  and  _244
REMARK  107  A    between atoms: _244  and  _245
REMARK  108  A    between atoms: _247  and  _249
REMARK  109  A    between atoms: _249  and  _250
REMARK  110  A    between atoms: _249  and  _252
REMARK  111  A    between atoms: _255  and  _257
REMARK  112  A    between atoms: _257  and  _258
REMARK  113  A    between atoms: _257  and  _260
REMARK  114  A    between atoms: _260  and  _261
REMARK  115  A    between atoms: _261  and  _262
REMARK  116  A    between atoms: _262  and  _263
REMARK  117  A    between atoms: _263  and  _264
REMARK  118  A    between atoms: _268  and  _270
REMARK  119  A    between atoms: _270  and  _271
REMARK  120  A    between atoms: _270  and  _273
REMARK  121  A    between atoms: _276  and  _278
REMARK  122  A    between atoms: _278  and  _279
REMARK  123  A    between atoms: _278  and  _281
REMARK  124  A    between atoms: _281  and  _282
REMARK  125  A    between atoms: _285  and  _287
REMARK  126  A    between atoms: _287  and  _288
REMARK  127  A    between atoms: _287  and  _290
REMARK  128  A    between atoms: _290  and  _291
REMARK  129  A    between atoms: _294  and  _296
REMARK  130  A    between atoms: _296  and  _297
REMARK  131  A    between atoms: _296  and  _299
REMARK  132  A    between atoms: _299  and  _300
REMARK  133  A    between atoms: _302  and  _304
REMARK  134  A    between atoms: _304  and  _305
REMARK  135  A    between atoms: _307  and  _309
REMARK  136  A    between atoms: _309  and  _310
REMARK  137  A    between atoms: _309  and  _312
REMARK  138  A    between atoms: _312  and  _313
REMARK  139  A    between atoms: _313  and  _314
REMARK  140  A    between atoms: _317  and  _319
REMARK  141  A    between atoms: _319  and  _320
REMARK  142  A    between atoms: _319  and  _322
REMARK  143  A    between atoms: _322  and  _323
REMARK  144  A    between atoms: _326  and  _328
REMARK  145  A    between atoms: _328  and  _329
REMARK  146  A    between atoms: _328  and  _331
REMARK  147  A    between atoms: _331  and  _332
REMARK  148  A    between atoms: _335  and  _337
REMARK  149  A    between atoms: _337  and  _338
REMARK  150  A    between atoms: _341  and  _343
REMARK  151  A    between atoms: _343  and  _344
REMARK  152  A    between atoms: _347  and  _349
REMARK  153  A    between atoms: _349  and  _350
REMARK  154  A    between atoms: _349  and  _352
REMARK  155  A    between atoms: _352  and  _353
REMARK  156  A    between atoms: _356  and  _358
REMARK  157  A    between atoms: _358  and  _359
REMARK  158  A    between atoms: _358  and  _361
REMARK  159  A    between atoms: _361  and  _362
REMARK  160  A    between atoms: _365  and  _367
REMARK  161  A    between atoms: _367  and  _368
REMARK  162  A    between atoms: _367  and  _370
REMARK  163  A    between atoms: _370  and  _371
REMARK  164  A    between atoms: _376  and  _377
REMARK  165  A    between atoms: _379  and  _381
REMARK  166  A    between atoms: _381  and  _382
REMARK  167  A    between atoms: _381  and  _384
REMARK  168  A    between atoms: _384  and  _385
REMARK  169  A    between atoms: _387  and  _389
REMARK  170  A    between atoms: _389  and  _390
REMARK  171  A    between atoms: _389  and  _392
REMARK  172  A    between atoms: _392  and  _393
REMARK  173  A    between atoms: _396  and  _398
REMARK  174  A    between atoms: _398  and  _399
REMARK  175  A    between atoms: _398  and  _401
REMARK  176  A    between atoms: _401  and  _402
REMARK  177  A    between atoms: _405  and  _407
REMARK  178  A    between atoms: _407  and  _408
REMARK  179  A    between atoms: _411  and  _413
REMARK  180  A    between atoms: _413  and  _414
REMARK  181  A    between atoms: _413  and  _416
REMARK  182  A    between atoms: _419  and  _421
REMARK  183  A    between atoms: _421  and  _422
REMARK  184  A    between atoms: _421  and  _424
REMARK  185  A    between atoms: _424  and  _425
REMARK  186  A    between atoms: _430  and  _431
REMARK  187  A    between atoms: _433  and  _435
REMARK  188  A    between atoms: _435  and  _436
REMARK  189  A    between atoms: _435  and  _438
REMARK  190  A    between atoms: _438  and  _439
REMARK  191  A    between atoms: _441  and  _443
REMARK  192  A    between atoms: _443  and  _444
REMARK  193  A    between atoms: _443  and  _446
REMARK  194  A    between atoms: _446  and  _447
REMARK  195  A    between atoms: _452  and  _453
REMARK  196  A    between atoms: _455  and  _457
REMARK  197  A    between atoms: _457  and  _458
REMARK  198  A    between atoms: _457  and  _460
REMARK  199  A    between atoms: _460  and  _461
REMARK                            x       y       z     vdW  Elec       q    Type
REMARK                         _______ _______ _______ _____ _____    ______ ____
ROOT
ATOM      1  C   ALA A   3      21.729   5.697 -24.532  0.00  0.00    +0.241 C 
ATOM      2  O   ALA A   3      22.490   5.783 -23.588  0.00  0.00    -0.273 OA
ATOM      3  N   ALA A   4      20.406   5.831 -24.439  0.00  0.00    -0.297 N 
ATOM      4  H   ALA A   4      19.845   5.839 -25.315  0.00  0.00    +0.150 HD
ENDROOT
BRANCH   3   5
ATOM      5  CA  ALA A   4      19.712   5.966 -23.167  0.00  0.00    +0.149 C 
ATOM      6  CB  ALA A   4      19.163   7.390 -23.009  0.00  0.00    +0.031 C 
BRANCH   5   7
ATOM      7  C   ALA A   4      18.577   4.949 -23.054  0.00  0.00    +0.241 C 
ATOM      8  N   LEU A   5      18.383   4.441 -21.843  0.00  0.00    -0.297 N 
ATOM      9  H   LEU A   5      19.027   4.718 -21.075  0.00  0.00    +0.150 HD
ATOM     10  O   ALA A   4      17.856   4.680 -24.025  0.00  0.00    -0.273 OA
BRANCH   8  11
ATOM     11  CA  LEU A   5      17.303   3.511 -21.550  0.00  0.00    +0.149 C 
BRANCH  11  12
ATOM     12  C   LEU A   5      16.432   4.176 -20.484  0.00  0.00    +0.241 C 
ATOM     13  O   LEU A   5      16.930   4.537 -19.419  0.00  0.00    -0.273 OA
ATOM     14  N   LEU A   6      15.137   4.287 -20.733  0.00  0.00    -0.298 N 
ATOM     15  H   LEU A   6      14.739   3.835 -21.581  0.00  0.00    +0.150 HD
BRANCH  14  16
ATOM     16  CA  LEU A   6      14.250   5.039 -19.831  0.00  0.00    +0.137 C 
BRANCH  16  17
ATOM     17  C   LEU A   6      13.212   4.195 -19.079  0.00  0.00    +0.227 C 
ATOM     18  O   LEU A   6      12.469   3.377 -19.696  0.00  0.00    -0.286 OA
ENDBRANCH  16  17
BRANCH  16  19
ATOM     19  CB  LEU A   6      13.488   6.107 -20.623  0.00  0.00    +0.028 C 
BRANCH  19  20
ATOM     20  CG  LEU A   6      14.266   7.001 -21.592  0.00  0.00    +0.002 C 
ATOM     21  CD2 LEU A   6      15.432   7.753 -20.920  0.00  0.00    +0.000 C 
ATOM     22  CD1 LEU A   6      13.241   7.971 -22.185  0.00  0.00    +0.000 C 
ENDBRANCH  19  20
ENDBRANCH  16  19
ENDBRANCH  14  16
ENDBRANCH  11  12
BRANCH  11  23
ATOM     23  CB  LEU A   5      17.891   2.176 -21.026  0.00  0.00    +0.029 C 
BRANCH  23  24
ATOM     24  CG  LEU A   5      16.843   1.109 -20.665  0.00  0.00    +0.002 C 
ATOM     25  CD2 LEU A   5      17.405  -0.051 -19.885  0.00  0.00    +0.000 C 
ATOM     26  CD1 LEU A   5      16.146   0.604 -21.937  0.00  0.00    +0.000 C 
ENDBRANCH  23  24
ENDBRANCH  11  23
ENDBRANCH   8  11
ENDBRANCH   5   7
ENDBRANCH   3   5
BRANCH   1  27
ATOM     27  CA  ALA A   3      22.304   5.470 -25.911  0.00  0.00    +0.149 C 
ATOM     28  CB  ALA A   3      22.778   4.043 -26.044  0.00  0.00    +0.031 C 
BRANCH  27  30
ATOM     29  C   ILE A   2      23.391   7.461 -26.818  0.00  0.00    +0.241 C 
ATOM     30  N   ALA A   3      23.438   6.378 -26.043  0.00  0.00    -0.297 N 
ATOM     31  H   ALA A   3      24.311   6.174 -25.516  0.00  0.00    +0.150 HD
ATOM     32  O   ILE A   2      22.410   7.769 -27.481  0.00  0.00    -0.273 OA
BRANCH  29  33
ATOM     33  CA  ILE A   2      24.640   8.331 -26.858  0.00  0.00    +0.148 C 
BRANCH  33  36
ATOM     34  C   THR A   1      26.109   7.450 -28.541  0.00  0.00    +0.241 C 
ATOM     35  O   THR A   1      26.803   6.832 -27.692  0.00  0.00    -0.274 OA
ATOM     36  N   ILE A   2      25.094   8.234 -28.212  0.00  0.00    -0.297 N 
ATOM     37  H   ILE A   2      24.618   8.790 -28.951  0.00  0.00    +0.150 HD
BRANCH  34  38
ATOM     38  CA  THR A   1      26.406   7.363 -30.042  0.00  0.00    +0.172 C 
BRANCH  38  39
ATOM     39  N   THR A   1      27.787   7.772 -30.266  0.00  0.00    -0.236 NA
ATOM     40  H   THR A   1      28.548   7.143 -29.938  0.00  0.00    +0.142 HD
ENDBRANCH  38  39
BRANCH  38  41
ATOM     41  CB  THR A   1      26.101   5.906 -30.554  0.00  0.00    +0.135 C 
ATOM     42  CG2 THR A   1      24.617   5.557 -30.344  0.00  0.00    +0.034 C 
BRANCH  41  43
ATOM     43  OG1 THR A   1      26.393   5.819 -31.959  0.00  0.00    -0.383 OA
ATOM     44  HG1 THR A   1      26.200   4.902 -32.279  0.00  0.00    +0.210 HD
ENDBRANCH  41  43
ENDBRANCH  38  41
ENDBRANCH  34  38
ENDBRANCH  33  36
BRANCH  33  45
ATOM     45  CB  ILE A   2      24.301   9.774 -26.527  0.00  0.00    +0.027 C 
ATOM     46  CG2 ILE A   2      23.707   9.906 -25.079  0.00  0.00    +0.002 C 
BRANCH  45  47
ATOM     47  CG1 ILE A   2      25.538  10.670 -26.742  0.00  0.00    +0.002 C 
ATOM     48  CD1 ILE A   2      26.813  10.232 -25.966  0.00  0.00    +0.000 C 
ENDBRANCH  45  47
ENDBRANCH  33  45
ENDBRANCH  29  33
ENDBRANCH  27  30
ENDBRANCH   1  27
TORSDOF 20
REMARK  Name = ../refined-set-2016/3neo/3neo_pocket.pdb
REMARK  199 active torsions:
REMARK  status: ('A' for Active; 'I' for Inactive)
REMARK    1  A    between atoms: _1  and  _3
REMARK    2  A    between atoms: _3  and  _4
REMARK    3  A    between atoms: _3  and  _6
REMARK    4  A    between atoms: _6  and  _7
REMARK    5  A    between atoms: _7  and  _8
REMARK    6  A    between atoms: _10  and  _12
REMARK    7  A    between atoms: _12  and  _13
REMARK    8  A    between atoms: _12  and  _15
REMARK    9  A    between atoms: _18  and  _20
REMARK   10  A    between atoms: _20  and  _21
REMARK   11  A    between atoms: _20  and  _23
REMARK   12  A    between atoms: _23  and  _24
REMARK   13  A    between atoms: _24  and  _25
REMARK   14  A    between atoms: _25  and  _26
REMARK   15  A    between atoms: _26  and  _27
REMARK   16  A    between atoms: _31  and  _33
REMARK   17  A    between atoms: _33  and  _34
REMARK   18  A    between atoms: _33  and  _36
REMARK   19  A    between atoms: _39  and  _41
REMARK   20  A    between atoms: _41  and  _42
REMARK   21  A    between atoms: _41  and  _44
REMARK   22  A    between atoms: _44  and  _45
REMARK   23  A    between atoms: _48  and  _50
REMARK   24  A    between atoms: _50  and  _51
REMARK   25  A    between atoms: _50  and  _53
REMARK   26  A    between atoms: _53  and  _54
REMARK   27  A    between atoms: _57  and  _59
REMARK   28  A    between atoms: _59  and  _60
REMARK   29  A    between atoms: _63  and  _65
REMARK   30  A    between atoms: _65  and  _66
REMARK   31  A    between atoms: _65  and  _68
REMARK   32  A    between atoms: _68  and  _69
REMARK   33  A    between atoms: _71  and  _73
REMARK   34  A    between atoms: _73  and  _74
REMARK   35  A    between atoms: _76  and  _78
REMARK   36  A    between atoms: _78  and  _79
REMARK   37  A    between atoms: _78  and  _81
REMARK   38  A    between atoms: _81  and  _82
REMARK   39  A    between atoms: _82  and  _83
REMARK   40  A    between atoms: _86  and  _88
REMARK   41  A    between atoms: _88  and  _89
REMARK   42  A    between atoms: _88  and  _91
REMARK   43  A    between atoms: _91  and  _92
REMARK   44  A    between atoms: _95  and  _97
REMARK   45  A    between atoms: _97  and  _98
REMARK   46  A    between atoms: _97  and  _100
REMARK   47  A    between atoms: _100  and  _101
REMARK   48  A    between atoms: _106  and  _108
REMARK   49  A    between atoms: _108  and  _109
REMARK   50  A    between atoms: _108  and  _111
REMARK   51  A    between atoms: _111  and  _112
REMARK   52  A    between atoms: _115  and  _117
REMARK   53  A    between atoms: _117  and  _118
REMARK   54  A    between atoms: _117  and  _120
REMARK   55  A    between atoms: _120  and  _121
REMARK   56  A    between atoms: _124  and  _126
REMARK   57  A    between atoms: _126  and  _127
REMARK   58  A    between atoms: _130  and  _132
REMARK   59  A    between atoms: _132  and  _133
REMARK   60  A    between atoms: _136  and  _138
REMARK   61  A    between atoms: _138  and  _139
REMARK   62  A    between atoms: _138  and  _141
REMARK   63  A    between atoms: _141  and  _142
REMARK   64  A    between atoms: _145  and  _147
REMARK   65  A    between atoms: _147  and  _148
REMARK   66  A    between atoms: _147  and  _150
REMARK   67  A    between atoms: _150  and  _151
REMARK   68  A    between atoms: _154  and  _156
REMARK   69  A    between atoms: _156  and  _157
REMARK   70  A    between atoms: _156  and  _159
REMARK   71  A    between atoms: _159  and  _160
REMARK   72  A    between atoms: _165  and  _166
REMARK   73  A    between atoms: _168  and  _170
REMARK   74  A    between atoms: _170  and  _171
REMARK   75  A    between atoms: _170  and  _173
REMARK   76  A    between atoms: _173  and  _174
REMARK   77  A    between atoms: _176  and  _178
REMARK   78  A    between atoms: _178  and  _179
REMARK   79  A    between atoms: _178  and  _181
REMARK   80  A    between atoms: _181  and  _182
REMARK   81  A    between atoms: _185  and  _187
REMARK   82  A    between atoms: _187  and  _188
REMARK   83  A    between atoms: _187  and  _190
REMARK   84  A    between atoms: _190  and  _191
REMARK   85  A    between atoms: _194  and  _196
REMARK   86  A    between atoms: _196  and  _197
REMARK   87  A    between atoms: _200  and  _202
REMARK   88  A    between atoms: _202  and  _203
REMARK   89  A    between atoms: _202  and  _205
REMARK   90  A    between atoms: _208  and  _210
REMARK   91  A    between atoms: _210  and  _211
REMARK   92  A    between atoms: _210  and  _213
REMARK   93  A    between atoms: _213  and  _214
REMARK   94  A    between atoms: _216  and  _218
REMARK   95  A    between atoms: _218  and  _219
REMARK   96  A    between atoms: _218  and  _221
REMARK   97  A    between atoms: _221  and  _222
REMARK   98  A    between atoms: _227  and  _228
REMARK   99  A    between atoms: _230  and  _232
REMARK  100  A    between atoms: _232  and  _233
REMARK  101  A    between atoms: _232  and  _235
REMARK  102  A    between atoms: _235  and  _236
REMARK  103  A    between atoms: _238  and  _240
REMARK  104  A    between atoms: _240  and  _241
REMARK  105  A    between atoms: _240  and  _243
REMARK  106  A    between atoms: _243  and  _244
REMARK  107  A    between atoms: _244  and  _245
REMARK  108  A    between atoms: _247  and  _249
REMARK  109  A    between atoms: _249  and  _250
REMARK  110  A    between atoms: _249  and  _252
REMARK  111  A    between atoms: _255  and  _257
REMARK  112  A    between atoms: _257  and  _258
REMARK  113  A    between atoms: _257  and  _260
REMARK  114  A    between atoms: _260  and  _261
REMARK  115  A    between atoms: _261  and  _262
REMARK  116  A    between atoms: _262  and  _263
REMARK  117  A    between atoms: _263  and  _264
REMARK  118  A    between atoms: _268  and  _270
REMARK  119  A    between atoms: _270  and  _271
REMARK  120  A    between atoms: _270  and  _273
REMARK  121  A    between atoms: _276  and  _278
REMARK  122  A    between atoms: _278  and  _279
REMARK  123  A    between atoms: _278  and  _281
REMARK  124  A    between atoms: _281  and  _282
REMARK  125  A    between atoms: _285  and  _287
REMARK  126  A    between atoms: _287  and  _288
REMARK  127  A    between atoms: _287  and  _290
REMARK  128  A    between atoms: _290  and  _291
REMARK  129  A    between atoms: _294  and  _296
REMARK  130  A    between atoms: _296  and  _297
REMARK  131  A    between atoms: _296  and  _299
REMARK  132  A    between atoms: _299  and  _300
REMARK  133  A    between atoms: _302  and  _304
REMARK  134  A    between atoms: _304  and  _305
REMARK  135  A    between atoms: _307  and  _309
REMARK  136  A    between atoms: _309  and  _310
REMARK  137  A    between atoms: _309  and  _312
REMARK  138  A    between atoms: _312  and  _313
REMARK  139  A    between atoms: _313  and  _314
REMARK  140  A    between atoms: _317  and  _319
REMARK  141  A    between atoms: _319  and  _320
REMARK  142  A    between atoms: _319  and  _322
REMARK  143  A    between atoms: _322  and  _323
REMARK  144  A    between atoms: _326  and  _328
REMARK  145  A    between atoms: _328  and  _329
REMARK  146  A    between atoms: _328  and  _331
REMARK  147  A    between atoms: _331  and  _332
REMARK  148  A    between atoms: _335  and  _337
REMARK  149  A    between atoms: _337  and  _338
REMARK  150  A    between atoms: _341  and  _343
REMARK  151  A    between atoms: _343  and  _344
REMARK  152  A    between atoms: _347  and  _349
REMARK  153  A    between atoms: _349  and  _350
REMARK  154  A    between atoms: _349  and  _352
REMARK  155  A    between atoms: _352  and  _353
REMARK  156  A    between atoms: _356  and  _358
REMARK  157  A    between atoms: _358  and  _359
REMARK  158  A    between atoms: _358  and  _361
REMARK  159  A    between atoms: _361  and  _362
REMARK  160  A    between atoms: _365  and  _367
REMARK  161  A    between atoms: _367  and  _368
REMARK  162  A    between atoms: _367  and  _370
REMARK  163  A    between atoms: _370  and  _371
REMARK  164  A    between atoms: _376  and  _377
REMARK  165  A    between atoms: _379  and  _381
REMARK  166  A    between atoms: _381  and  _382
REMARK  167  A    between atoms: _381  and  _384
REMARK  168  A    between atoms: _384  and  _385
REMARK  169  A    between atoms: _387  and  _389
REMARK  170  A    between atoms: _389  and  _390
REMARK  171  A    between atoms: _389  and  _392
REMARK  172  A    between atoms: _392  and  _393
REMARK  173  A    between atoms: _396  and  _398
REMARK  174  A    between atoms: _398  and  _399
REMARK  175  A    between atoms: _398  and  _401
REMARK  176  A    between atoms: _401  and  _402
REMARK  177  A    between atoms: _405  and  _407
REMARK  178  A    between atoms: _407  and  _408
REMARK  179  A    between atoms: _411  and  _413
REMARK  180  A    between atoms: _413  and  _414
REMARK  181  A    between atoms: _413  and  _416
REMARK  182  A    between atoms: _419  and  _421
REMARK  183  A    between atoms: _421  and  _422
REMARK  184  A    between atoms: _421  and  _424
REMARK  185  A    between atoms: _424  and  _425
REMARK  186  A    between atoms: _430  and  _431
REMARK  187  A    between atoms: _433  and  _435
REMARK  188  A    between atoms: _435  and  _436
REMARK  189  A    between atoms: _435  and  _438
REMARK  190  A    between atoms: _438  and  _439
REMARK  191  A    between atoms: _441  and  _443
REMARK  192  A    between atoms: _443  and  _444
REMARK  193  A    between atoms: _443  and  _446
REMARK  194  A    between atoms: _446  and  _447
REMARK  195  A    between atoms: _452  and  _453
REMARK  196  A    between atoms: _455  and  _457
REMARK  197  A    between atoms: _457  and  _458
REMARK  198  A    between atoms: _457  and  _460
REMARK  199  A    between atoms: _460  and  _461
REMARK                            x       y       z     vdW  Elec       q    Type
REMARK                         _______ _______ _______ _____ _____    ______ ____
ROOT
ATOM      1  CA  THR A   3      23.144   6.248 -20.408  0.00  0.00    +0.176 C 
ENDROOT
BRANCH   1   3
ATOM      2  C   SER A   2      21.282   5.418 -19.108  0.00  0.00    +0.243 C 
ATOM      3  N   THR A   3      22.577   5.687 -19.196  0.00  0.00    -0.295 N 
ATOM      4  H   THR A   3      23.196   5.493 -18.383  0.00  0.00    +0.150 HD
ATOM      5  O   SER A   2      20.445   5.795 -19.945  0.00  0.00    -0.273 OA
BRANCH   2   6
ATOM      6  CA  SER A   2      20.843   4.686 -17.865  0.00  0.00    +0.178 C 
BRANCH   6   9
ATOM      7  C   TYR A   1      19.025   5.572 -16.547  0.00  0.00    +0.239 C 
ATOM      8  O   TYR A   1      19.724   5.747 -15.535  0.00  0.00    -0.274 OA
ATOM      9  N   SER A   2      19.470   5.041 -17.673  0.00  0.00    -0.295 N 
ATOM     10  H   SER A   2      18.797   4.875 -18.448  0.00  0.00    +0.150 HD
BRANCH   7  11
ATOM     11  CA  TYR A   1      17.569   5.967 -16.592  0.00  0.00    +0.149 C 
BRANCH  11  12
ATOM     12  N   TYR A   1      17.044   6.033 -15.232  0.00  0.00    -0.238 NA
ATOM     13  H   TYR A   1      17.669   6.310 -14.449  0.00  0.00    +0.142 HD
ENDBRANCH  11  12
BRANCH  11  14
ATOM     14  CB  TYR A   1      17.402   7.280 -17.383  0.00  0.00    +0.053 C 
BRANCH  14  15
ATOM     15  CG  TYR A   1      18.238   8.434 -16.844  0.00  0.00    -0.020 A 
ATOM     16  CD2 TYR A   1      17.709   9.256 -15.867  0.00  0.00    -0.001 A 
ATOM     17  CE2 TYR A   1      18.417  10.306 -15.355  0.00  0.00    +0.036 A 
ATOM     18  CZ  TYR A   1      19.712  10.544 -15.754  0.00  0.00    +0.134 A 
ATOM     19  CE1 TYR A   1      20.328   9.736 -16.726  0.00  0.00    +0.036 A 
ATOM     20  CD1 TYR A   1      19.560   8.656 -17.265  0.00  0.00    -0.001 A 
BRANCH  18  21
ATOM     21  OH  TYR A   1      20.314  11.608 -15.140  0.00  0.00    -0.506 OA
ATOM     22  HH  TYR A   1      19.800  12.432 -15.331  0.00  0.00    +0.292 HD
ENDBRANCH  18  21
ENDBRANCH  14  15
ENDBRANCH  11  14
ENDBRANCH   7  11
ENDBRANCH   6   9
BRANCH   6  23
ATOM     23  CB  SER A   2      20.945   3.180 -18.040  0.00  0.00    +0.166 C 
BRANCH  23  24
ATOM     24  OG  SER A   2      20.266   2.529 -16.974  0.00  0.00    -0.380 OA
ATOM     25  H   SER A   2      20.334   1.548 -17.091  0.00  0.00    +0.211 HD
ENDBRANCH  23  24
ENDBRANCH   6  23
ENDBRANCH   2   6
ENDBRANCH   1   3
BRANCH   1  26
ATOM     26  C   THR A   3      24.528   5.674 -20.647  0.00  0.00    +0.243 C 
ATOM     27  O   THR A   3      25.293   5.420 -19.703  0.00  0.00    -0.273 OA
ATOM     28  N   THR A   4      24.818   5.411 -21.913  0.00  0.00    -0.295 N 
ATOM     29  H   THR A   4      24.108   5.584 -22.653  0.00  0.00    +0.150 HD
BRANCH  28  30
ATOM     30  CA  THR A   4      26.117   4.885 -22.270  0.00  0.00    +0.176 C 
BRANCH  30  31
ATOM     31  C   THR A   4      26.560   5.554 -23.554  0.00  0.00    +0.243 C 
ATOM     32  N   ALA A   5      27.856   5.505 -23.804  0.00  0.00    -0.297 N 
ATOM     33  H   ALA A   5      28.482   4.992 -23.151  0.00  0.00    +0.150 HD
ATOM     34  O   THR A   4      25.753   6.135 -24.261  0.00  0.00    -0.273 OA
BRANCH  32  35
ATOM     35  CA  ALA A   5      28.414   6.141 -24.952  0.00  0.00    +0.149 C 
ATOM     36  CB  ALA A   5      29.334   7.301 -24.498  0.00  0.00    +0.031 C 
BRANCH  35  37
ATOM     37  C   ALA A   5      29.181   5.103 -25.739  0.00  0.00    +0.241 C 
ATOM     38  O   ALA A   5      29.916   4.282 -25.166  0.00  0.00    -0.273 OA
ATOM     39  N   VAL A   6      28.976   5.108 -27.053  0.00  0.00    -0.298 N 
ATOM     40  H   VAL A   6      28.211   5.695 -27.443  0.00  0.00    +0.150 HD
BRANCH  39  41
ATOM     41  CA  VAL A   6      29.795   4.311 -27.966  0.00  0.00    +0.137 C 
BRANCH  41  42
ATOM     42  CB  VAL A   6      28.956   3.448 -28.889  0.00  0.00    +0.026 C 
ATOM     43  CG2 VAL A   6      27.965   2.607 -28.075  0.00  0.00    +0.002 C 
ATOM     44  CG1 VAL A   6      29.857   2.541 -29.744  0.00  0.00    +0.002 C 
ENDBRANCH  41  42
BRANCH  41  45
ATOM     45  C   VAL A   6      30.601   5.308 -28.782  0.00  0.00    +0.227 C 
ATOM     46  O   VAL A   6      30.037   6.161 -29.466  0.00  0.00    -0.286 OA
ENDBRANCH  41  45
ENDBRANCH  39  41
ENDBRANCH  35  37
ENDBRANCH  32  35
ENDBRANCH  30  31
BRANCH  30  47
ATOM     47  CB  THR A   4      26.175   3.323 -22.331  0.00  0.00    +0.137 C 
ATOM     48  CG2 THR A   4      25.539   2.754 -23.605  0.00  0.00    +0.034 C 
BRANCH  47  49
ATOM     49  OG1 THR A   4      27.545   2.899 -22.253  0.00  0.00    -0.382 OA
ATOM     50  HG1 THR A   4      27.939   3.214 -21.401  0.00  0.00    +0.210 HD
ENDBRANCH  47  49
ENDBRANCH  30  47
ENDBRANCH  28  30
ENDBRANCH   1  26
BRANCH   1  51
ATOM     51  CB  THR A   3      23.175   7.767 -20.441  0.00  0.00    +0.137 C 
ATOM     52  CG2 THR A   3      24.115   8.405 -19.378  0.00  0.00    +0.034 C 
BRANCH  51  53
ATOM     53  OG1 THR A   3      23.633   8.147 -21.724  0.00  0.00    -0.382 OA
ATOM     54  HG1 THR A   3      23.014   7.795 -22.412  0.00  0.00    +0.210 HD
ENDBRANCH  51  53
ENDBRANCH   1  51
TORSDOF 22
REMARK  Name = ../refined-set-2016/3neo/3neo_pocket.pdb
REMARK  199 active torsions:
REMARK  status: ('A' for Active; 'I' for Inactive)
REMARK    1  A    between atoms: _1  and  _3
REMARK    2  A    between atoms: _3  and  _4
REMARK    3  A    between atoms: _3  and  _6
REMARK    4  A    between atoms: _6  and  _7
REMARK    5  A    between atoms: _7  and  _8
REMARK    6  A    between atoms: _10  and  _12
REMARK    7  A    between atoms: _12  and  _13
REMARK    8  A    between atoms: _12  and  _15
REMARK    9  A    between atoms: _18  and  _20
REMARK   10  A    between atoms: _20  and  _21
REMARK   11  A    between atoms: _20  and  _23
REMARK   12  A    between atoms: _23  and  _24
REMARK   13  A    between atoms: _24  and  _25
REMARK   14  A    between atoms: _25  and  _26
REMARK   15  A    between atoms: _26  and  _27
REMARK   16  A    between atoms: _31  and  _33
REMARK   17  A    between atoms: _33  and  _34
REMARK   18  A    between atoms: _33  and  _36
REMARK   19  A    between atoms: _39  and  _41
REMARK   20  A    between atoms: _41  and  _42
REMARK   21  A    between atoms: _41  and  _44
REMARK   22  A    between atoms: _44  and  _45
REMARK   23  A    between atoms: _48  and  _50
REMARK   24  A    between atoms: _50  and  _51
REMARK   25  A    between atoms: _50  and  _53
REMARK   26  A    between atoms: _53  and  _54
REMARK   27  A    between atoms: _57  and  _59
REMARK   28  A    between atoms: _59  and  _60
REMARK   29  A    between atoms: _63  and  _65
REMARK   30  A    between atoms: _65  and  _66
REMARK   31  A    between atoms: _65  and  _68
REMARK   32  A    between atoms: _68  and  _69
REMARK   33  A    between atoms: _71  and  _73
REMARK   34  A    between atoms: _73  and  _74
REMARK   35  A    between atoms: _76  and  _78
REMARK   36  A    between atoms: _78  and  _79
REMARK   37  A    between atoms: _78  and  _81
REMARK   38  A    between atoms: _81  and  _82
REMARK   39  A    between atoms: _82  and  _83
REMARK   40  A    between atoms: _86  and  _88
REMARK   41  A    between atoms: _88  and  _89
REMARK   42  A    between atoms: _88  and  _91
REMARK   43  A    between atoms: _91  and  _92
REMARK   44  A    between atoms: _95  and  _97
REMARK   45  A    between atoms: _97  and  _98
REMARK   46  A    between atoms: _97  and  _100
REMARK   47  A    between atoms: _100  and  _101
REMARK   48  A    between atoms: _106  and  _108
REMARK   49  A    between atoms: _108  and  _109
REMARK   50  A    between atoms: _108  and  _111
REMARK   51  A    between atoms: _111  and  _112
REMARK   52  A    between atoms: _115  and  _117
REMARK   53  A    between atoms: _117  and  _118
REMARK   54  A    between atoms: _117  and  _120
REMARK   55  A    between atoms: _120  and  _121
REMARK   56  A    between atoms: _124  and  _126
REMARK   57  A    between atoms: _126  and  _127
REMARK   58  A    between atoms: _130  and  _132
REMARK   59  A    between atoms: _132  and  _133
REMARK   60  A    between atoms: _136  and  _138
REMARK   61  A    between atoms: _138  and  _139
REMARK   62  A    between atoms: _138  and  _141
REMARK   63  A    between atoms: _141  and  _142
REMARK   64  A    between atoms: _145  and  _147
REMARK   65  A    between atoms: _147  and  _148
REMARK   66  A    between atoms: _147  and  _150
REMARK   67  A    between atoms: _150  and  _151
REMARK   68  A    between atoms: _154  and  _156
REMARK   69  A    between atoms: _156  and  _157
REMARK   70  A    between atoms: _156  and  _159
REMARK   71  A    between atoms: _159  and  _160
REMARK   72  A    between atoms: _165  and  _166
REMARK   73  A    between atoms: _168  and  _170
REMARK   74  A    between atoms: _170  and  _171
REMARK   75  A    between atoms: _170  and  _173
REMARK   76  A    between atoms: _173  and  _174
REMARK   77  A    between atoms: _176  and  _178
REMARK   78  A    between atoms: _178  and  _179
REMARK   79  A    between atoms: _178  and  _181
REMARK   80  A    between atoms: _181  and  _182
REMARK   81  A    between atoms: _185  and  _187
REMARK   82  A    between atoms: _187  and  _188
REMARK   83  A    between atoms: _187  and  _190
REMARK   84  A    between atoms: _190  and  _191
REMARK   85  A    between atoms: _194  and  _196
REMARK   86  A    between atoms: _196  and  _197
REMARK   87  A    between atoms: _200  and  _202
REMARK   88  A    between atoms: _202  and  _203
REMARK   89  A    between atoms: _202  and  _205
REMARK   90  A    between atoms: _208  and  _210
REMARK   91  A    between atoms: _210  and  _211
REMARK   92  A    between atoms: _210  and  _213
REMARK   93  A    between atoms: _213  and  _214
REMARK   94  A    between atoms: _216  and  _218
REMARK   95  A    between atoms: _218  and  _219
REMARK   96  A    between atoms: _218  and  _221
REMARK   97  A    between atoms: _221  and  _222
REMARK   98  A    between atoms: _227  and  _228
REMARK   99  A    between atoms: _230  and  _232
REMARK  100  A    between atoms: _232  and  _233
REMARK  101  A    between atoms: _232  and  _235
REMARK  102  A    between atoms: _235  and  _236
REMARK  103  A    between atoms: _238  and  _240
REMARK  104  A    between atoms: _240  and  _241
REMARK  105  A    between atoms: _240  and  _243
REMARK  106  A    between atoms: _243  and  _244
REMARK  107  A    between atoms: _244  and  _245
REMARK  108  A    between atoms: _247  and  _249
REMARK  109  A    between atoms: _249  and  _250
REMARK  110  A    between atoms: _249  and  _252
REMARK  111  A    between atoms: _255  and  _257
REMARK  112  A    between atoms: _257  and  _258
REMARK  113  A    between atoms: _257  and  _260
REMARK  114  A    between atoms: _260  and  _261
REMARK  115  A    between atoms: _261  and  _262
REMARK  116  A    between atoms: _262  and  _263
REMARK  117  A    between atoms: _263  and  _264
REMARK  118  A    between atoms: _268  and  _270
REMARK  119  A    between atoms: _270  and  _271
REMARK  120  A    between atoms: _270  and  _273
REMARK  121  A    between atoms: _276  and  _278
REMARK  122  A    between atoms: _278  and  _279
REMARK  123  A    between atoms: _278  and  _281
REMARK  124  A    between atoms: _281  and  _282
REMARK  125  A    between atoms: _285  and  _287
REMARK  126  A    between atoms: _287  and  _288
REMARK  127  A    between atoms: _287  and  _290
REMARK  128  A    between atoms: _290  and  _291
REMARK  129  A    between atoms: _294  and  _296
REMARK  130  A    between atoms: _296  and  _297
REMARK  131  A    between atoms: _296  and  _299
REMARK  132  A    between atoms: _299  and  _300
REMARK  133  A    between atoms: _302  and  _304
REMARK  134  A    between atoms: _304  and  _305
REMARK  135  A    between atoms: _307  and  _309
REMARK  136  A    between atoms: _309  and  _310
REMARK  137  A    between atoms: _309  and  _312
REMARK  138  A    between atoms: _312  and  _313
REMARK  139  A    between atoms: _313  and  _314
REMARK  140  A    between atoms: _317  and  _319
REMARK  141  A    between atoms: _319  and  _320
REMARK  142  A    between atoms: _319  and  _322
REMARK  143  A    between atoms: _322  and  _323
REMARK  144  A    between atoms: _326  and  _328
REMARK  145  A    between atoms: _328  and  _329
REMARK  146  A    between atoms: _328  and  _331
REMARK  147  A    between atoms: _331  and  _332
REMARK  148  A    between atoms: _335  and  _337
REMARK  149  A    between atoms: _337  and  _338
REMARK  150  A    between atoms: _341  and  _343
REMARK  151  A    between atoms: _343  and  _344
REMARK  152  A    between atoms: _347  and  _349
REMARK  153  A    between atoms: _349  and  _350
REMARK  154  A    between atoms: _349  and  _352
REMARK  155  A    between atoms: _352  and  _353
REMARK  156  A    between atoms: _356  and  _358
REMARK  157  A    between atoms: _358  and  _359
REMARK  158  A    between atoms: _358  and  _361
REMARK  159  A    between atoms: _361  and  _362
REMARK  160  A    between atoms: _365  and  _367
REMARK  161  A    between atoms: _367  and  _368
REMARK  162  A    between atoms: _367  and  _370
REMARK  163  A    between atoms: _370  and  _371
REMARK  164  A    between atoms: _376  and  _377
REMARK  165  A    between atoms: _379  and  _381
REMARK  166  A    between atoms: _381  and  _382
REMARK  167  A    between atoms: _381  and  _384
REMARK  168  A    between atoms: _384  and  _385
REMARK  169  A    between atoms: _387  and  _389
REMARK  170  A    between atoms: _389  and  _390
REMARK  171  A    between atoms: _389  and  _392
REMARK  172  A    between atoms: _392  and  _393
REMARK  173  A    between atoms: _396  and  _398
REMARK  174  A    between atoms: _398  and  _399
REMARK  175  A    between atoms: _398  and  _401
REMARK  176  A    between atoms: _401  and  _402
REMARK  177  A    between atoms: _405  and  _407
REMARK  178  A    between atoms: _407  and  _408
REMARK  179  A    between atoms: _411  and  _413
REMARK  180  A    between atoms: _413  and  _414
REMARK  181  A    between atoms: _413  and  _416
REMARK  182  A    between atoms: _419  and  _421
REMARK  183  A    between atoms: _421  and  _422
REMARK  184  A    between atoms: _421  and  _424
REMARK  185  A    between atoms: _424  and  _425
REMARK  186  A    between atoms: _430  and  _431
REMARK  187  A    between atoms: _433  and  _435
REMARK  188  A    between atoms: _435  and  _436
REMARK  189  A    between atoms: _435  and  _438
REMARK  190  A    between atoms: _438  and  _439
REMARK  191  A    between atoms: _441  and  _443
REMARK  192  A    between atoms: _443  and  _444
REMARK  193  A    between atoms: _443  and  _446
REMARK  194  A    between atoms: _446  and  _447
REMARK  195  A    between atoms: _452  and  _453
REMARK  196  A    between atoms: _455  and  _457
REMARK  197  A    between atoms: _457  and  _458
REMARK  198  A    between atoms: _457  and  _460
REMARK  199  A    between atoms: _460  and  _461
REMARK                            x       y       z     vdW  Elec       q    Type
REMARK                         _______ _______ _______ _____ _____    ______ ____
ROOT
ATOM      1  CA  TYR A   2      26.067   5.466 -15.634  0.00  0.00    +0.153 C 
ENDROOT
BRANCH   1   4
ATOM      2  C   SER A   1      27.758   4.951 -17.223  0.00  0.00    +0.241 C 
ATOM      3  O   SER A   1      28.572   4.773 -16.304  0.00  0.00    -0.274 OA
ATOM      4  N   TYR A   2      26.556   5.456 -17.000  0.00  0.00    -0.297 N 
ATOM      5  H   TYR A   2      25.980   5.834 -17.779  0.00  0.00    +0.150 HD
BRANCH   2   6
ATOM      6  CA  SER A   1      28.091   4.583 -18.649  0.00  0.00    +0.174 C 
BRANCH   6   7
ATOM      7  N   SER A   1      29.524   4.685 -18.888  0.00  0.00    -0.236 NA
ATOM      8  H   SER A   1      30.186   4.504 -18.107  0.00  0.00    +0.142 HD
ENDBRANCH   6   7
BRANCH   6   9
ATOM      9  CB  SER A   1      27.611   3.139 -18.893  0.00  0.00    +0.163 C 
BRANCH   9  10
ATOM     10  OG  SER A   1      26.186   3.081 -18.838  0.00  0.00    -0.380 OA
ATOM     11  H   SER A   1      25.806   3.673 -19.535  0.00  0.00    +0.211 HD
ENDBRANCH   9  10
ENDBRANCH   6   9
ENDBRANCH   2   6
ENDBRANCH   1   4
BRANCH   1  12
ATOM     12  C   TYR A   2      24.571   5.276 -15.664  0.00  0.00    +0.241 C 
ATOM     13  N   SER A   3      24.056   4.765 -14.555  0.00  0.00    -0.296 N 
ATOM     14  H   SER A   3      24.704   4.429 -13.814  0.00  0.00    +0.150 HD
ATOM     15  O   TYR A   2      23.915   5.578 -16.667  0.00  0.00    -0.273 OA
BRANCH  13  16
ATOM     16  CA  SER A   3      22.639   4.656 -14.333  0.00  0.00    +0.166 C 
BRANCH  16  17
ATOM     17  C   SER A   3      22.279   5.327 -13.014  0.00  0.00    +0.229 C 
ATOM     18  O   SER A   3      23.097   5.430 -12.093  0.00  0.00    -0.286 OA
ENDBRANCH  16  17
BRANCH  16  19
ATOM     19  CB  SER A   3      22.221   3.187 -14.314  0.00  0.00    +0.165 C 
BRANCH  19  20
ATOM     20  OG  SER A   3      22.588   2.555 -15.532  0.00  0.00    -0.380 OA
ATOM     21  H   SER A   3      23.569   2.611 -15.649  0.00  0.00    +0.211 HD
ENDBRANCH  19  20
ENDBRANCH  16  19
ENDBRANCH  13  16
ENDBRANCH   1  12
BRANCH   1  22
ATOM     22  CB  TYR A   2      26.464   6.732 -14.850  0.00  0.00    +0.055 C 
BRANCH  22  23
ATOM     23  CG  TYR A   2      25.727   7.990 -15.258  0.00  0.00    -0.020 A 
ATOM     24  CD2 TYR A   2      24.508   8.287 -14.683  0.00  0.00    -0.001 A 
ATOM     25  CE2 TYR A   2      23.789   9.401 -15.021  0.00  0.00    +0.036 A 
ATOM     26  CZ  TYR A   2      24.266  10.279 -15.964  0.00  0.00    +0.134 A 
ATOM     27  CE1 TYR A   2      25.502  10.061 -16.585  0.00  0.00    +0.036 A 
ATOM     28  CD1 TYR A   2      26.243   8.881 -16.241  0.00  0.00    -0.001 A 
BRANCH  26  29
ATOM     29  OH  TYR A   2      23.435  11.372 -16.198  0.00  0.00    -0.506 OA
ATOM     30  HH  TYR A   2      22.623  11.294 -15.637  0.00  0.00    +0.292 HD
ENDBRANCH  26  29
ENDBRANCH  22  23
ENDBRANCH   1  22
TORSDOF 13
REMARK  Name = ../refined-set-2016/3neo/3neo_pocket.pdb
REMARK  199 active torsions:
REMARK  status: ('A' for Active; 'I' for Inactive)
REMARK    1  A    between atoms: _1  and  _3
REMARK    2  A    between atoms: _3  and  _4
REMARK    3  A    between atoms: _3  and  _6
REMARK    4  A    between atoms: _6  and  _7
REMARK    5  A    between atoms: _7  and  _8
REMARK    6  A    between atoms: _10  and  _12
REMARK    7  A    between atoms: _12  and  _13
REMARK    8  A    between atoms: _12  and  _15
REMARK    9  A    between atoms: _18  and  _20
REMARK   10  A    between atoms: _20  and  _21
REMARK   11  A    between atoms: _20  and  _23
REMARK   12  A    between atoms: _23  and  _24
REMARK   13  A    between atoms: _24  and  _25
REMARK   14  A    between atoms: _25  and  _26
REMARK   15  A    between atoms: _26  and  _27
REMARK   16  A    between atoms: _31  and  _33
REMARK   17  A    between atoms: _33  and  _34
REMARK   18  A    between atoms: _33  and  _36
REMARK   19  A    between atoms: _39  and  _41
REMARK   20  A    between atoms: _41  and  _42
REMARK   21  A    between atoms: _41  and  _44
REMARK   22  A    between atoms: _44  and  _45
REMARK   23  A    between atoms: _48  and  _50
REMARK   24  A    between atoms: _50  and  _51
REMARK   25  A    between atoms: _50  and  _53
REMARK   26  A    between atoms: _53  and  _54
REMARK   27  A    between atoms: _57  and  _59
REMARK   28  A    between atoms: _59  and  _60
REMARK   29  A    between atoms: _63  and  _65
REMARK   30  A    between atoms: _65  and  _66
REMARK   31  A    between atoms: _65  and  _68
REMARK   32  A    between atoms: _68  and  _69
REMARK   33  A    between atoms: _71  and  _73
REMARK   34  A    between atoms: _73  and  _74
REMARK   35  A    between atoms: _76  and  _78
REMARK   36  A    between atoms: _78  and  _79
REMARK   37  A    between atoms: _78  and  _81
REMARK   38  A    between atoms: _81  and  _82
REMARK   39  A    between atoms: _82  and  _83
REMARK   40  A    between atoms: _86  and  _88
REMARK   41  A    between atoms: _88  and  _89
REMARK   42  A    between atoms: _88  and  _91
REMARK   43  A    between atoms: _91  and  _92
REMARK   44  A    between atoms: _95  and  _97
REMARK   45  A    between atoms: _97  and  _98
REMARK   46  A    between atoms: _97  and  _100
REMARK   47  A    between atoms: _100  and  _101
REMARK   48  A    between atoms: _106  and  _108
REMARK   49  A    between atoms: _108  and  _109
REMARK   50  A    between atoms: _108  and  _111
REMARK   51  A    between atoms: _111  and  _112
REMARK   52  A    between atoms: _115  and  _117
REMARK   53  A    between atoms: _117  and  _118
REMARK   54  A    between atoms: _117  and  _120
REMARK   55  A    between atoms: _120  and  _121
REMARK   56  A    between atoms: _124  and  _126
REMARK   57  A    between atoms: _126  and  _127
REMARK   58  A    between atoms: _130  and  _132
REMARK   59  A    between atoms: _132  and  _133
REMARK   60  A    between atoms: _136  and  _138
REMARK   61  A    between atoms: _138  and  _139
REMARK   62  A    between atoms: _138  and  _141
REMARK   63  A    between atoms: _141  and  _142
REMARK   64  A    between atoms: _145  and  _147
REMARK   65  A    between atoms: _147  and  _148
REMARK   66  A    between atoms: _147  and  _150
REMARK   67  A    between atoms: _150  and  _151
REMARK   68  A    between atoms: _154  and  _156
REMARK   69  A    between atoms: _156  and  _157
REMARK   70  A    between atoms: _156  and  _159
REMARK   71  A    between atoms: _159  and  _160
REMARK   72  A    between atoms: _165  and  _166
REMARK   73  A    between atoms: _168  and  _170
REMARK   74  A    between atoms: _170  and  _171
REMARK   75  A    between atoms: _170  and  _173
REMARK   76  A    between atoms: _173  and  _174
REMARK   77  A    between atoms: _176  and  _178
REMARK   78  A    between atoms: _178  and  _179
REMARK   79  A    between atoms: _178  and  _181
REMARK   80  A    between atoms: _181  and  _182
REMARK   81  A    between atoms: _185  and  _187
REMARK   82  A    between atoms: _187  and  _188
REMARK   83  A    between atoms: _187  and  _190
REMARK   84  A    between atoms: _190  and  _191
REMARK   85  A    between atoms: _194  and  _196
REMARK   86  A    between atoms: _196  and  _197
REMARK   87  A    between atoms: _200  and  _202
REMARK   88  A    between atoms: _202  and  _203
REMARK   89  A    between atoms: _202  and  _205
REMARK   90  A    between atoms: _208  and  _210
REMARK   91  A    between atoms: _210  and  _211
REMARK   92  A    between atoms: _210  and  _213
REMARK   93  A    between atoms: _213  and  _214
REMARK   94  A    between atoms: _216  and  _218
REMARK   95  A    between atoms: _218  and  _219
REMARK   96  A    between atoms: _218  and  _221
REMARK   97  A    between atoms: _221  and  _222
REMARK   98  A    between atoms: _227  and  _228
REMARK   99  A    between atoms: _230  and  _232
REMARK  100  A    between atoms: _232  and  _233
REMARK  101  A    between atoms: _232  and  _235
REMARK  102  A    between atoms: _235  and  _236
REMARK  103  A    between atoms: _238  and  _240
REMARK  104  A    between atoms: _240  and  _241
REMARK  105  A    between atoms: _240  and  _243
REMARK  106  A    between atoms: _243  and  _244
REMARK  107  A    between atoms: _244  and  _245
REMARK  108  A    between atoms: _247  and  _249
REMARK  109  A    between atoms: _249  and  _250
REMARK  110  A    between atoms: _249  and  _252
REMARK  111  A    between atoms: _255  and  _257
REMARK  112  A    between atoms: _257  and  _258
REMARK  113  A    between atoms: _257  and  _260
REMARK  114  A    between atoms: _260  and  _261
REMARK  115  A    between atoms: _261  and  _262
REMARK  116  A    between atoms: _262  and  _263
REMARK  117  A    between atoms: _263  and  _264
REMARK  118  A    between atoms: _268  and  _270
REMARK  119  A    between atoms: _270  and  _271
REMARK  120  A    between atoms: _270  and  _273
REMARK  121  A    between atoms: _276  and  _278
REMARK  122  A    between atoms: _278  and  _279
REMARK  123  A    between atoms: _278  and  _281
REMARK  124  A    between atoms: _281  and  _282
REMARK  125  A    between atoms: _285  and  _287
REMARK  126  A    between atoms: _287  and  _288
REMARK  127  A    between atoms: _287  and  _290
REMARK  128  A    between atoms: _290  and  _291
REMARK  129  A    between atoms: _294  and  _296
REMARK  130  A    between atoms: _296  and  _297
REMARK  131  A    between atoms: _296  and  _299
REMARK  132  A    between atoms: _299  and  _300
REMARK  133  A    between atoms: _302  and  _304
REMARK  134  A    between atoms: _304  and  _305
REMARK  135  A    between atoms: _307  and  _309
REMARK  136  A    between atoms: _309  and  _310
REMARK  137  A    between atoms: _309  and  _312
REMARK  138  A    between atoms: _312  and  _313
REMARK  139  A    between atoms: _313  and  _314
REMARK  140  A    between atoms: _317  and  _319
REMARK  141  A    between atoms: _319  and  _320
REMARK  142  A    between atoms: _319  and  _322
REMARK  143  A    between atoms: _322  and  _323
REMARK  144  A    between atoms: _326  and  _328
REMARK  145  A    between atoms: _328  and  _329
REMARK  146  A    between atoms: _328  and  _331
REMARK  147  A    between atoms: _331  and  _332
REMARK  148  A    between atoms: _335  and  _337
REMARK  149  A    between atoms: _337  and  _338
REMARK  150  A    between atoms: _341  and  _343
REMARK  151  A    between atoms: _343  and  _344
REMARK  152  A    between atoms: _347  and  _349
REMARK  153  A    between atoms: _349  and  _350
REMARK  154  A    between atoms: _349  and  _352
REMARK  155  A    between atoms: _352  and  _353
REMARK  156  A    between atoms: _356  and  _358
REMARK  157  A    between atoms: _358  and  _359
REMARK  158  A    between atoms: _358  and  _361
REMARK  159  A    between atoms: _361  and  _362
REMARK  160  A    between atoms: _365  and  _367
REMARK  161  A    between atoms: _367  and  _368
REMARK  162  A    between atoms: _367  and  _370
REMARK  163  A    between atoms: _370  and  _371
REMARK  164  A    between atoms: _376  and  _377
REMARK  165  A    between atoms: _379  and  _381
REMARK  166  A    between atoms: _381  and  _382
REMARK  167  A    between atoms: _381  and  _384
REMARK  168  A    between atoms: _384  and  _385
REMARK  169  A    between atoms: _387  and  _389
REMARK  170  A    between atoms: _389  and  _390
REMARK  171  A    between atoms: _389  and  _392
REMARK  172  A    between atoms: _392  and  _393
REMARK  173  A    between atoms: _396  and  _398
REMARK  174  A    between atoms: _398  and  _399
REMARK  175  A    between atoms: _398  and  _401
REMARK  176  A    between atoms: _401  and  _402
REMARK  177  A    between atoms: _405  and  _407
REMARK  178  A    between atoms: _407  and  _408
REMARK  179  A    between atoms: _411  and  _413
REMARK  180  A    between atoms: _413  and  _414
REMARK  181  A    between atoms: _413  and  _416
REMARK  182  A    between atoms: _419  and  _421
REMARK  183  A    between atoms: _421  and  _422
REMARK  184  A    between atoms: _421  and  _424
REMARK  185  A    between atoms: _424  and  _425
REMARK  186  A    between atoms: _430  and  _431
REMARK  187  A    between atoms: _433  and  _435
REMARK  188  A    between atoms: _435  and  _436
REMARK  189  A    between atoms: _435  and  _438
REMARK  190  A    between atoms: _438  and  _439
REMARK  191  A    between atoms: _441  and  _443
REMARK  192  A    between atoms: _443  and  _444
REMARK  193  A    between atoms: _443  and  _446
REMARK  194  A    between atoms: _446  and  _447
REMARK  195  A    between atoms: _452  and  _453
REMARK  196  A    between atoms: _455  and  _457
REMARK  197  A    between atoms: _457  and  _458
REMARK  198  A    between atoms: _457  and  _460
REMARK  199  A    between atoms: _460  and  _461
REMARK                            x       y       z     vdW  Elec       q    Type
REMARK                         _______ _______ _______ _____ _____    ______ ____
ROOT
ATOM      1  CA  LYS A   3      23.454  -6.388 -29.419  0.00  0.00    +0.149 C 
ENDROOT
BRANCH   1   3
ATOM      2  C   VAL A   2      22.506  -8.522 -30.162  0.00  0.00    +0.241 C 
ATOM      3  N   LYS A   3      22.495  -7.501 -29.295  0.00  0.00    -0.297 N 
ATOM      4  H   LYS A   3      21.799  -7.493 -28.522  0.00  0.00    +0.150 HD
ATOM      5  O   VAL A   2      23.298  -8.595 -31.122  0.00  0.00    -0.273 OA
BRANCH   2   6
ATOM      6  CA  VAL A   2      21.450  -9.598 -29.954  0.00  0.00    +0.148 C 
BRANCH   6   9
ATOM      7  C   MET A   1      19.546  -9.825 -31.403  0.00  0.00    +0.238 C 
ATOM      8  O   MET A   1      18.774  -9.506 -30.499  0.00  0.00    -0.274 OA
ATOM      9  N   VAL A   2      20.850  -9.888 -31.239  0.00  0.00    -0.297 N 
ATOM     10  H   VAL A   2      21.457 -10.149 -32.042  0.00  0.00    +0.150 HD
BRANCH   7  11
ATOM     11  CA  MET A   1      19.032 -10.190 -32.791  0.00  0.00    +0.146 C 
BRANCH  11  12
ATOM     12  N   MET A   1      17.748 -10.848 -32.625  0.00  0.00    -0.238 NA
ATOM     13  H   MET A   1      17.081 -10.468 -31.923  0.00  0.00    +0.142 HD
ENDBRANCH  11  12
BRANCH  11  14
ATOM     14  CB  MET A   1      18.895  -8.923 -33.642  0.00  0.00    +0.038 C 
BRANCH  14  15
ATOM     15  CG  MET A   1      20.252  -8.272 -34.060  0.00  0.00    +0.060 C 
BRANCH  15  16
ATOM     16  SD  MET A   1      20.875  -6.956 -32.954  0.00  0.00    -0.139 S 
ATOM     17  CE  MET A   1      19.906  -5.583 -33.595  0.00  0.00    +0.069 C 
ENDBRANCH  15  16
ENDBRANCH  14  15
ENDBRANCH  11  14
ENDBRANCH   7  11
ENDBRANCH   6   9
BRANCH   6  18
ATOM     18  CB  VAL A   2      22.100 -10.850 -29.332  0.00  0.00    +0.027 C 
ATOM     19  CG2 VAL A   2      22.794 -10.484 -27.974  0.00  0.00    +0.002 C 
ATOM     20  CG1 VAL A   2      21.065 -11.958 -29.167  0.00  0.00    +0.002 C 
ENDBRANCH   6  18
ENDBRANCH   2   6
ENDBRANCH   1   3
BRANCH   1  21
ATOM     21  C   LYS A   3      24.141  -6.190 -28.086  0.00  0.00    +0.241 C 
ATOM     22  O   LYS A   3      23.463  -6.083 -27.045  0.00  0.00    -0.273 OA
ATOM     23  N   VAL A   4      25.477  -6.151 -28.095  0.00  0.00    -0.297 N 
ATOM     24  H   VAL A   4      25.993  -6.179 -28.997  0.00  0.00    +0.150 HD
BRANCH  23  25
ATOM     25  CA  VAL A   4      26.207  -6.069 -26.840  0.00  0.00    +0.149 C 
BRANCH  25  26
ATOM     26  C   VAL A   4      27.216  -4.912 -26.854  0.00  0.00    +0.241 C 
ATOM     27  N   LEU A   5      27.155  -4.098 -25.797  0.00  0.00    -0.297 N 
ATOM     28  H   LEU A   5      26.396  -4.255 -25.103  0.00  0.00    +0.150 HD
ATOM     29  O   VAL A   4      28.016  -4.771 -27.807  0.00  0.00    -0.273 OA
BRANCH  27  30
ATOM     30  CA  LEU A   5      28.093  -2.996 -25.555  0.00  0.00    +0.149 C 
BRANCH  30  31
ATOM     31  C   LEU A   5      28.966  -3.211 -24.326  0.00  0.00    +0.241 C 
ATOM     32  O   LEU A   5      28.557  -3.876 -23.356  0.00  0.00    -0.273 OA
ATOM     33  N   ASP A   6      30.152  -2.605 -24.374  0.00  0.00    -0.298 N 
ATOM     34  H   ASP A   6      30.397  -2.098 -25.248  0.00  0.00    +0.150 HD
BRANCH  33  35
ATOM     35  CA  ASP A   6      31.126  -2.598 -23.303  0.00  0.00    +0.148 C 
BRANCH  35  36
ATOM     36  C   ASP A   6      31.140  -1.216 -22.614  0.00  0.00    +0.227 C 
ATOM     37  O   ASP A   6      31.514  -0.222 -23.252  0.00  0.00    -0.286 OA
ENDBRANCH  35  36
BRANCH  35  38
ATOM     38  CB  ASP A   6      32.489  -2.901 -23.936  0.00  0.00    +0.142 C 
BRANCH  38  39
ATOM     39  CG  ASP A   6      33.607  -2.946 -22.939  0.00  0.00    +0.367 C 
ATOM     40  OD2 ASP A   6      33.599  -2.161 -21.967  0.00  0.00    -0.246 OA
ATOM     41  OD1 ASP A   6      34.536  -3.740 -23.165  0.00  0.00    -0.246 OA
ENDBRANCH  38  39
ENDBRANCH  35  38
ENDBRANCH  33  35
ENDBRANCH  30  31
BRANCH  30  42
ATOM     42  CB  LEU A   5      27.327  -1.673 -25.403  0.00  0.00    +0.029 C 
BRANCH  42  43
ATOM     43  CG  LEU A   5      26.412  -1.273 -26.584  0.00  0.00    +0.002 C 
ATOM     44  CD2 LEU A   5      25.810   0.086 -26.335  0.00  0.00    +0.000 C 
ATOM     45  CD1 LEU A   5      27.190  -1.250 -27.889  0.00  0.00    +0.000 C 
ENDBRANCH  42  43
ENDBRANCH  30  42
ENDBRANCH  27  30
ENDBRANCH  25  26
BRANCH  25  46
ATOM     46  CB  VAL A   4      26.937  -7.376 -26.523  0.00  0.00    +0.027 C 
ATOM     47  CG2 VAL A   4      27.436  -7.379 -25.056  0.00  0.00    +0.002 C 
ATOM     48  CG1 VAL A   4      26.047  -8.563 -26.811  0.00  0.00    +0.002 C 
ENDBRANCH  25  46
ENDBRANCH  23  25
ENDBRANCH   1  21
BRANCH   1  49
ATOM     49  CB  LYS A   3      22.723  -5.119 -29.818  0.00  0.00    +0.029 C 
BRANCH  49  50
ATOM     50  CG  LYS A   3      23.587  -3.845 -29.678  0.00  0.00    +0.000 C 
BRANCH  50  51
ATOM     51  CD  LYS A   3      24.085  -3.383 -31.003  0.00  0.00    -0.024 C 
BRANCH  51  52
ATOM     52  CE  LYS A   3      24.978  -2.131 -30.867  0.00  0.00    -0.086 C 
BRANCH  52  53
ATOM     53  NZ  LYS A   3      25.543  -1.808 -32.193  0.00  0.00    +0.380 N 
ATOM     54  HZ1 LYS A   3      26.147  -0.965 -32.115  0.00  0.00    -0.089 HD
ATOM     55  HZ2 LYS A   3      26.109  -2.612 -32.532  0.00  0.00    -0.089 HD
ATOM     56  HZ3 LYS A   3      24.769  -1.620 -32.862  0.00  0.00    -0.089 HD
ENDBRANCH  52  53
ENDBRANCH  51  52
ENDBRANCH  50  51
ENDBRANCH  49  50
ENDBRANCH   1  49
TORSDOF 26
REMARK  Name = ../refined-set-2016/3neo/3neo_pocket.pdb
REMARK  199 active torsions:
REMARK  status: ('A' for Active; 'I' for Inactive)
REMARK    1  A    between atoms: _1  and  _3
REMARK    2  A    between atoms: _3  and  _4
REMARK    3  A    between atoms: _3  and  _6
REMARK    4  A    between atoms: _6  and  _7
REMARK    5  A    between atoms: _7  and  _8
REMARK    6  A    between atoms: _10  and  _12
REMARK    7  A    between atoms: _12  and  _13
REMARK    8  A    between atoms: _12  and  _15
REMARK    9  A    between atoms: _18  and  _20
REMARK   10  A    between atoms: _20  and  _21
REMARK   11  A    between atoms: _20  and  _23
REMARK   12  A    between atoms: _23  and  _24
REMARK   13  A    between atoms: _24  and  _25
REMARK   14  A    between atoms: _25  and  _26
REMARK   15  A    between atoms: _26  and  _27
REMARK   16  A    between atoms: _31  and  _33
REMARK   17  A    between atoms: _33  and  _34
REMARK   18  A    between atoms: _33  and  _36
REMARK   19  A    between atoms: _39  and  _41
REMARK   20  A    between atoms: _41  and  _42
REMARK   21  A    between atoms: _41  and  _44
REMARK   22  A    between atoms: _44  and  _45
REMARK   23  A    between atoms: _48  and  _50
REMARK   24  A    between atoms: _50  and  _51
REMARK   25  A    between atoms: _50  and  _53
REMARK   26  A    between atoms: _53  and  _54
REMARK   27  A    between atoms: _57  and  _59
REMARK   28  A    between atoms: _59  and  _60
REMARK   29  A    between atoms: _63  and  _65
REMARK   30  A    between atoms: _65  and  _66
REMARK   31  A    between atoms: _65  and  _68
REMARK   32  A    between atoms: _68  and  _69
REMARK   33  A    between atoms: _71  and  _73
REMARK   34  A    between atoms: _73  and  _74
REMARK   35  A    between atoms: _76  and  _78
REMARK   36  A    between atoms: _78  and  _79
REMARK   37  A    between atoms: _78  and  _81
REMARK   38  A    between atoms: _81  and  _82
REMARK   39  A    between atoms: _82  and  _83
REMARK   40  A    between atoms: _86  and  _88
REMARK   41  A    between atoms: _88  and  _89
REMARK   42  A    between atoms: _88  and  _91
REMARK   43  A    between atoms: _91  and  _92
REMARK   44  A    between atoms: _95  and  _97
REMARK   45  A    between atoms: _97  and  _98
REMARK   46  A    between atoms: _97  and  _100
REMARK   47  A    between atoms: _100  and  _101
REMARK   48  A    between atoms: _106  and  _108
REMARK   49  A    between atoms: _108  and  _109
REMARK   50  A    between atoms: _108  and  _111
REMARK   51  A    between atoms: _111  and  _112
REMARK   52  A    between atoms: _115  and  _117
REMARK   53  A    between atoms: _117  and  _118
REMARK   54  A    between atoms: _117  and  _120
REMARK   55  A    between atoms: _120  and  _121
REMARK   56  A    between atoms: _124  and  _126
REMARK   57  A    between atoms: _126  and  _127
REMARK   58  A    between atoms: _130  and  _132
REMARK   59  A    between atoms: _132  and  _133
REMARK   60  A    between atoms: _136  and  _138
REMARK   61  A    between atoms: _138  and  _139
REMARK   62  A    between atoms: _138  and  _141
REMARK   63  A    between atoms: _141  and  _142
REMARK   64  A    between atoms: _145  and  _147
REMARK   65  A    between atoms: _147  and  _148
REMARK   66  A    between atoms: _147  and  _150
REMARK   67  A    between atoms: _150  and  _151
REMARK   68  A    between atoms: _154  and  _156
REMARK   69  A    between atoms: _156  and  _157
REMARK   70  A    between atoms: _156  and  _159
REMARK   71  A    between atoms: _159  and  _160
REMARK   72  A    between atoms: _165  and  _166
REMARK   73  A    between atoms: _168  and  _170
REMARK   74  A    between atoms: _170  and  _171
REMARK   75  A    between atoms: _170  and  _173
REMARK   76  A    between atoms: _173  and  _174
REMARK   77  A    between atoms: _176  and  _178
REMARK   78  A    between atoms: _178  and  _179
REMARK   79  A    between atoms: _178  and  _181
REMARK   80  A    between atoms: _181  and  _182
REMARK   81  A    between atoms: _185  and  _187
REMARK   82  A    between atoms: _187  and  _188
REMARK   83  A    between atoms: _187  and  _190
REMARK   84  A    between atoms: _190  and  _191
REMARK   85  A    between atoms: _194  and  _196
REMARK   86  A    between atoms: _196  and  _197
REMARK   87  A    between atoms: _200  and  _202
REMARK   88  A    between atoms: _202  and  _203
REMARK   89  A    between atoms: _202  and  _205
REMARK   90  A    between atoms: _208  and  _210
REMARK   91  A    between atoms: _210  and  _211
REMARK   92  A    between atoms: _210  and  _213
REMARK   93  A    between atoms: _213  and  _214
REMARK   94  A    between atoms: _216  and  _218
REMARK   95  A    between atoms: _218  and  _219
REMARK   96  A    between atoms: _218  and  _221
REMARK   97  A    between atoms: _221  and  _222
REMARK   98  A    between atoms: _227  and  _228
REMARK   99  A    between atoms: _230  and  _232
REMARK  100  A    between atoms: _232  and  _233
REMARK  101  A    between atoms: _232  and  _235
REMARK  102  A    between atoms: _235  and  _236
REMARK  103  A    between atoms: _238  and  _240
REMARK  104  A    between atoms: _240  and  _241
REMARK  105  A    between atoms: _240  and  _243
REMARK  106  A    between atoms: _243  and  _244
REMARK  107  A    between atoms: _244  and  _245
REMARK  108  A    between atoms: _247  and  _249
REMARK  109  A    between atoms: _249  and  _250
REMARK  110  A    between atoms: _249  and  _252
REMARK  111  A    between atoms: _255  and  _257
REMARK  112  A    between atoms: _257  and  _258
REMARK  113  A    between atoms: _257  and  _260
REMARK  114  A    between atoms: _260  and  _261
REMARK  115  A    between atoms: _261  and  _262
REMARK  116  A    between atoms: _262  and  _263
REMARK  117  A    between atoms: _263  and  _264
REMARK  118  A    between atoms: _268  and  _270
REMARK  119  A    between atoms: _270  and  _271
REMARK  120  A    between atoms: _270  and  _273
REMARK  121  A    between atoms: _276  and  _278
REMARK  122  A    between atoms: _278  and  _279
REMARK  123  A    between atoms: _278  and  _281
REMARK  124  A    between atoms: _281  and  _282
REMARK  125  A    between atoms: _285  and  _287
REMARK  126  A    between atoms: _287  and  _288
REMARK  127  A    between atoms: _287  and  _290
REMARK  128  A    between atoms: _290  and  _291
REMARK  129  A    between atoms: _294  and  _296
REMARK  130  A    between atoms: _296  and  _297
REMARK  131  A    between atoms: _296  and  _299
REMARK  132  A    between atoms: _299  and  _300
REMARK  133  A    between atoms: _302  and  _304
REMARK  134  A    between atoms: _304  and  _305
REMARK  135  A    between atoms: _307  and  _309
REMARK  136  A    between atoms: _309  and  _310
REMARK  137  A    between atoms: _309  and  _312
REMARK  138  A    between atoms: _312  and  _313
REMARK  139  A    between atoms: _313  and  _314
REMARK  140  A    between atoms: _317  and  _319
REMARK  141  A    between atoms: _319  and  _320
REMARK  142  A    between atoms: _319  and  _322
REMARK  143  A    between atoms: _322  and  _323
REMARK  144  A    between atoms: _326  and  _328
REMARK  145  A    between atoms: _328  and  _329
REMARK  146  A    between atoms: _328  and  _331
REMARK  147  A    between atoms: _331  and  _332
REMARK  148  A    between atoms: _335  and  _337
REMARK  149  A    between atoms: _337  and  _338
REMARK  150  A    between atoms: _341  and  _343
REMARK  151  A    between atoms: _343  and  _344
REMARK  152  A    between atoms: _347  and  _349
REMARK  153  A    between atoms: _349  and  _350
REMARK  154  A    between atoms: _349  and  _352
REMARK  155  A    between atoms: _352  and  _353
REMARK  156  A    between atoms: _356  and  _358
REMARK  157  A    between atoms: _358  and  _359
REMARK  158  A    between atoms: _358  and  _361
REMARK  159  A    between atoms: _361  and  _362
REMARK  160  A    between atoms: _365  and  _367
REMARK  161  A    between atoms: _367  and  _368
REMARK  162  A    between atoms: _367  and  _370
REMARK  163  A    between atoms: _370  and  _371
REMARK  164  A    between atoms: _376  and  _377
REMARK  165  A    between atoms: _379  and  _381
REMARK  166  A    between atoms: _381  and  _382
REMARK  167  A    between atoms: _381  and  _384
REMARK  168  A    between atoms: _384  and  _385
REMARK  169  A    between atoms: _387  and  _389
REMARK  170  A    between atoms: _389  and  _390
REMARK  171  A    between atoms: _389  and  _392
REMARK  172  A    between atoms: _392  and  _393
REMARK  173  A    between atoms: _396  and  _398
REMARK  174  A    between atoms: _398  and  _399
REMARK  175  A    between atoms: _398  and  _401
REMARK  176  A    between atoms: _401  and  _402
REMARK  177  A    between atoms: _405  and  _407
REMARK  178  A    between atoms: _407  and  _408
REMARK  179  A    between atoms: _411  and  _413
REMARK  180  A    between atoms: _413  and  _414
REMARK  181  A    between atoms: _413  and  _416
REMARK  182  A    between atoms: _419  and  _421
REMARK  183  A    between atoms: _421  and  _422
REMARK  184  A    between atoms: _421  and  _424
REMARK  185  A    between atoms: _424  and  _425
REMARK  186  A    between atoms: _430  and  _431
REMARK  187  A    between atoms: _433  and  _435
REMARK  188  A    between atoms: _435  and  _436
REMARK  189  A    between atoms: _435  and  _438
REMARK  190  A    between atoms: _438  and  _439
REMARK  191  A    between atoms: _441  and  _443
REMARK  192  A    between atoms: _443  and  _444
REMARK  193  A    between atoms: _443  and  _446
REMARK  194  A    between atoms: _446  and  _447
REMARK  195  A    between atoms: _452  and  _453
REMARK  196  A    between atoms: _455  and  _457
REMARK  197  A    between atoms: _457  and  _458
REMARK  198  A    between atoms: _457  and  _460
REMARK  199  A    between atoms: _460  and  _461
REMARK                            x       y       z     vdW  Elec       q    Type
REMARK                         _______ _______ _______ _____ _____    ______ ____
ROOT
ATOM      1  C   GLY A   2      27.326  -6.548 -31.561  0.00  0.00    +0.243 C 
ATOM      2  O   GLY A   2      26.581  -6.745 -30.684  0.00  0.00    -0.273 OA
ATOM      3  N   GLU A   3      27.038  -6.808 -32.818  0.00  0.00    -0.298 N 
ATOM      4  H   GLU A   3      27.747  -6.580 -33.544  0.00  0.00    +0.150 HD
ENDROOT
BRANCH   1   5
ATOM      5  CA  GLY A   2      28.673  -5.929 -31.269  0.00  0.00    +0.176 C 
BRANCH   5   7
ATOM      6  C   SER A   1      28.897  -4.238 -32.988  0.00  0.00    +0.241 C 
ATOM      7  N   GLY A   2      29.309  -5.344 -32.414  0.00  0.00    -0.295 N 
ATOM      8  H   GLY A   2      30.143  -5.823 -32.811  0.00  0.00    +0.150 HD
ATOM      9  O   SER A   1      27.991  -3.608 -32.569  0.00  0.00    -0.274 OA
BRANCH   6  10
ATOM     10  CA  SER A   1      29.642  -3.795 -34.265  0.00  0.00    +0.174 C 
BRANCH  10  11
ATOM     11  N   SER A   1      30.570  -4.764 -34.791  0.00  0.00    -0.236 NA
ATOM     12  H   SER A   1      30.239  -5.491 -35.458  0.00  0.00    +0.142 HD
ENDBRANCH  10  11
BRANCH  10  13
ATOM     13  CB  SER A   1      28.683  -3.375 -35.355  0.00  0.00    +0.163 C 
BRANCH  13  14
ATOM     14  OG  SER A   1      27.894  -4.453 -35.746  0.00  0.00    -0.380 OA
ATOM     15  H   SER A   1      28.474  -5.179 -36.087  0.00  0.00    +0.211 HD
ENDBRANCH  13  14
ENDBRANCH  10  13
ENDBRANCH   6  10
ENDBRANCH   5   7
ENDBRANCH   1   5
BRANCH   3  16
ATOM     16  CA  GLU A   3      25.767  -7.404 -33.250  0.00  0.00    +0.137 C 
BRANCH  16  17
ATOM     17  C   GLU A   3      25.839  -8.867 -33.657  0.00  0.00    +0.227 C 
ATOM     18  O   GLU A   3      26.795  -9.300 -34.213  0.00  0.00    -0.286 OA
ENDBRANCH  16  17
BRANCH  16  19
ATOM     19  CB  GLU A   3      25.132  -6.588 -34.368  0.00  0.00    +0.039 C 
BRANCH  19  20
ATOM     20  CG  GLU A   3      24.778  -5.221 -33.922  0.00  0.00    +0.116 C 
BRANCH  20  21
ATOM     21  CD  GLU A   3      24.457  -4.280 -35.012  0.00  0.00    +0.365 C 
ATOM     22  OE2 GLU A   3      24.300  -3.129 -34.726  0.00  0.00    -0.246 OA
ATOM     23  OE1 GLU A   3      24.382  -4.658 -36.148  0.00  0.00    -0.246 OA
ENDBRANCH  20  21
ENDBRANCH  19  20
ENDBRANCH  16  19
ENDBRANCH   3  16
TORSDOF 11
REMARK  Name = ../refined-set-2016/3neo/3neo_pocket.pdb
REMARK  199 active torsions:
REMARK  status: ('A' for Active; 'I' for Inactive)
REMARK    1  A    between atoms: _1  and  _3
REMARK    2  A    between atoms: _3  and  _4
REMARK    3  A    between atoms: _3  and  _6
REMARK    4  A    between atoms: _6  and  _7
REMARK    5  A    between atoms: _7  and  _8
REMARK    6  A    between atoms: _10  and  _12
REMARK    7  A    between atoms: _12  and  _13
REMARK    8  A    between atoms: _12  and  _15
REMARK    9  A    between atoms: _18  and  _20
REMARK   10  A    between atoms: _20  and  _21
REMARK   11  A    between atoms: _20  and  _23
REMARK   12  A    between atoms: _23  and  _24
REMARK   13  A    between atoms: _24  and  _25
REMARK   14  A    between atoms: _25  and  _26
REMARK   15  A    between atoms: _26  and  _27
REMARK   16  A    between atoms: _31  and  _33
REMARK   17  A    between atoms: _33  and  _34
REMARK   18  A    between atoms: _33  and  _36
REMARK   19  A    between atoms: _39  and  _41
REMARK   20  A    between atoms: _41  and  _42
REMARK   21  A    between atoms: _41  and  _44
REMARK   22  A    between atoms: _44  and  _45
REMARK   23  A    between atoms: _48  and  _50
REMARK   24  A    between atoms: _50  and  _51
REMARK   25  A    between atoms: _50  and  _53
REMARK   26  A    between atoms: _53  and  _54
REMARK   27  A    between atoms: _57  and  _59
REMARK   28  A    between atoms: _59  and  _60
REMARK   29  A    between atoms: _63  and  _65
REMARK   30  A    between atoms: _65  and  _66
REMARK   31  A    between atoms: _65  and  _68
REMARK   32  A    between atoms: _68  and  _69
REMARK   33  A    between atoms: _71  and  _73
REMARK   34  A    between atoms: _73  and  _74
REMARK   35  A    between atoms: _76  and  _78
REMARK   36  A    between atoms: _78  and  _79
REMARK   37  A    between atoms: _78  and  _81
REMARK   38  A    between atoms: _81  and  _82
REMARK   39  A    between atoms: _82  and  _83
REMARK   40  A    between atoms: _86  and  _88
REMARK   41  A    between atoms: _88  and  _89
REMARK   42  A    between atoms: _88  and  _91
REMARK   43  A    between atoms: _91  and  _92
REMARK   44  A    between atoms: _95  and  _97
REMARK   45  A    between atoms: _97  and  _98
REMARK   46  A    between atoms: _97  and  _100
REMARK   47  A    between atoms: _100  and  _101
REMARK   48  A    between atoms: _106  and  _108
REMARK   49  A    between atoms: _108  and  _109
REMARK   50  A    between atoms: _108  and  _111
REMARK   51  A    between atoms: _111  and  _112
REMARK   52  A    between atoms: _115  and  _117
REMARK   53  A    between atoms: _117  and  _118
REMARK   54  A    between atoms: _117  and  _120
REMARK   55  A    between atoms: _120  and  _121
REMARK   56  A    between atoms: _124  and  _126
REMARK   57  A    between atoms: _126  and  _127
REMARK   58  A    between atoms: _130  and  _132
REMARK   59  A    between atoms: _132  and  _133
REMARK   60  A    between atoms: _136  and  _138
REMARK   61  A    between atoms: _138  and  _139
REMARK   62  A    between atoms: _138  and  _141
REMARK   63  A    between atoms: _141  and  _142
REMARK   64  A    between atoms: _145  and  _147
REMARK   65  A    between atoms: _147  and  _148
REMARK   66  A    between atoms: _147  and  _150
REMARK   67  A    between atoms: _150  and  _151
REMARK   68  A    between atoms: _154  and  _156
REMARK   69  A    between atoms: _156  and  _157
REMARK   70  A    between atoms: _156  and  _159
REMARK   71  A    between atoms: _159  and  _160
REMARK   72  A    between atoms: _165  and  _166
REMARK   73  A    between atoms: _168  and  _170
REMARK   74  A    between atoms: _170  and  _171
REMARK   75  A    between atoms: _170  and  _173
REMARK   76  A    between atoms: _173  and  _174
REMARK   77  A    between atoms: _176  and  _178
REMARK   78  A    between atoms: _178  and  _179
REMARK   79  A    between atoms: _178  and  _181
REMARK   80  A    between atoms: _181  and  _182
REMARK   81  A    between atoms: _185  and  _187
REMARK   82  A    between atoms: _187  and  _188
REMARK   83  A    between atoms: _187  and  _190
REMARK   84  A    between atoms: _190  and  _191
REMARK   85  A    between atoms: _194  and  _196
REMARK   86  A    between atoms: _196  and  _197
REMARK   87  A    between atoms: _200  and  _202
REMARK   88  A    between atoms: _202  and  _203
REMARK   89  A    between atoms: _202  and  _205
REMARK   90  A    between atoms: _208  and  _210
REMARK   91  A    between atoms: _210  and  _211
REMARK   92  A    between atoms: _210  and  _213
REMARK   93  A    between atoms: _213  and  _214
REMARK   94  A    between atoms: _216  and  _218
REMARK   95  A    between atoms: _218  and  _219
REMARK   96  A    between atoms: _218  and  _221
REMARK   97  A    between atoms: _221  and  _222
REMARK   98  A    between atoms: _227  and  _228
REMARK   99  A    between atoms: _230  and  _232
REMARK  100  A    between atoms: _232  and  _233
REMARK  101  A    between atoms: _232  and  _235
REMARK  102  A    between atoms: _235  and  _236
REMARK  103  A    between atoms: _238  and  _240
REMARK  104  A    between atoms: _240  and  _241
REMARK  105  A    between atoms: _240  and  _243
REMARK  106  A    between atoms: _243  and  _244
REMARK  107  A    between atoms: _244  and  _245
REMARK  108  A    between atoms: _247  and  _249
REMARK  109  A    between atoms: _249  and  _250
REMARK  110  A    between atoms: _249  and  _252
REMARK  111  A    between atoms: _255  and  _257
REMARK  112  A    between atoms: _257  and  _258
REMARK  113  A    between atoms: _257  and  _260
REMARK  114  A    between atoms: _260  and  _261
REMARK  115  A    between atoms: _261  and  _262
REMARK  116  A    between atoms: _262  and  _263
REMARK  117  A    between atoms: _263  and  _264
REMARK  118  A    between atoms: _268  and  _270
REMARK  119  A    between atoms: _270  and  _271
REMARK  120  A    between atoms: _270  and  _273
REMARK  121  A    between atoms: _276  and  _278
REMARK  122  A    between atoms: _278  and  _279
REMARK  123  A    between atoms: _278  and  _281
REMARK  124  A    between atoms: _281  and  _282
REMARK  125  A    between atoms: _285  and  _287
REMARK  126  A    between atoms: _287  and  _288
REMARK  127  A    between atoms: _287  and  _290
REMARK  128  A    between atoms: _290  and  _291
REMARK  129  A    between atoms: _294  and  _296
REMARK  130  A    between atoms: _296  and  _297
REMARK  131  A    between atoms: _296  and  _299
REMARK  132  A    between atoms: _299  and  _300
REMARK  133  A    between atoms: _302  and  _304
REMARK  134  A    between atoms: _304  and  _305
REMARK  135  A    between atoms: _307  and  _309
REMARK  136  A    between atoms: _309  and  _310
REMARK  137  A    between atoms: _309  and  _312
REMARK  138  A    between atoms: _312  and  _313
REMARK  139  A    between atoms: _313  and  _314
REMARK  140  A    between atoms: _317  and  _319
REMARK  141  A    between atoms: _319  and  _320
REMARK  142  A    between atoms: _319  and  _322
REMARK  143  A    between atoms: _322  and  _323
REMARK  144  A    between atoms: _326  and  _328
REMARK  145  A    between atoms: _328  and  _329
REMARK  146  A    between atoms: _328  and  _331
REMARK  147  A    between atoms: _331  and  _332
REMARK  148  A    between atoms: _335  and  _337
REMARK  149  A    between atoms: _337  and  _338
REMARK  150  A    between atoms: _341  and  _343
REMARK  151  A    between atoms: _343  and  _344
REMARK  152  A    between atoms: _347  and  _349
REMARK  153  A    between atoms: _349  and  _350
REMARK  154  A    between atoms: _349  and  _352
REMARK  155  A    between atoms: _352  and  _353
REMARK  156  A    between atoms: _356  and  _358
REMARK  157  A    between atoms: _358  and  _359
REMARK  158  A    between atoms: _358  and  _361
REMARK  159  A    between atoms: _361  and  _362
REMARK  160  A    between atoms: _365  and  _367
REMARK  161  A    between atoms: _367  and  _368
REMARK  162  A    between atoms: _367  and  _370
REMARK  163  A    between atoms: _370  and  _371
REMARK  164  A    between atoms: _376  and  _377
REMARK  165  A    between atoms: _379  and  _381
REMARK  166  A    between atoms: _381  and  _382
REMARK  167  A    between atoms: _381  and  _384
REMARK  168  A    between atoms: _384  and  _385
REMARK  169  A    between atoms: _387  and  _389
REMARK  170  A    between atoms: _389  and  _390
REMARK  171  A    between atoms: _389  and  _392
REMARK  172  A    between atoms: _392  and  _393
REMARK  173  A    between atoms: _396  and  _398
REMARK  174  A    between atoms: _398  and  _399
REMARK  175  A    between atoms: _398  and  _401
REMARK  176  A    between atoms: _401  and  _402
REMARK  177  A    between atoms: _405  and  _407
REMARK  178  A    between atoms: _407  and  _408
REMARK  179  A    between atoms: _411  and  _413
REMARK  180  A    between atoms: _413  and  _414
REMARK  181  A    between atoms: _413  and  _416
REMARK  182  A    between atoms: _419  and  _421
REMARK  183  A    between atoms: _421  and  _422
REMARK  184  A    between atoms: _421  and  _424
REMARK  185  A    between atoms: _424  and  _425
REMARK  186  A    between atoms: _430  and  _431
REMARK  187  A    between atoms: _433  and  _435
REMARK  188  A    between atoms: _435  and  _436
REMARK  189  A    between atoms: _435  and  _438
REMARK  190  A    between atoms: _438  and  _439
REMARK  191  A    between atoms: _441  and  _443
REMARK  192  A    between atoms: _443  and  _444
REMARK  193  A    between atoms: _443  and  _446
REMARK  194  A    between atoms: _446  and  _447
REMARK  195  A    between atoms: _452  and  _453
REMARK  196  A    between atoms: _455  and  _457
REMARK  197  A    between atoms: _457  and  _458
REMARK  198  A    between atoms: _457  and  _460
REMARK  199  A    between atoms: _460  and  _461
REMARK                            x       y       z     vdW  Elec       q    Type
REMARK                         _______ _______ _______ _____ _____    ______ ____
ROOT
ATOM      1  C   ALA A   3      21.041  -5.697 -24.532  0.00  0.00    +0.241 C 
ATOM      2  O   ALA A   3      20.280  -5.783 -23.588  0.00  0.00    -0.273 OA
ATOM      3  N   ALA A   4      22.364  -5.831 -24.439  0.00  0.00    -0.297 N 
ATOM      4  H   ALA A   4      22.925  -5.839 -25.315  0.00  0.00    +0.150 HD
ENDROOT
BRANCH   3   5
ATOM      5  CA  ALA A   4      23.058  -5.966 -23.167  0.00  0.00    +0.149 C 
ATOM      6  CB  ALA A   4      23.607  -7.390 -23.009  0.00  0.00    +0.031 C 
BRANCH   5   7
ATOM      7  C   ALA A   4      24.193  -4.949 -23.054  0.00  0.00    +0.241 C 
ATOM      8  N   LEU A   5      24.387  -4.441 -21.843  0.00  0.00    -0.297 N 
ATOM      9  H   LEU A   5      23.743  -4.718 -21.075  0.00  0.00    +0.150 HD
ATOM     10  O   ALA A   4      24.914  -4.680 -24.025  0.00  0.00    -0.273 OA
BRANCH   8  11
ATOM     11  CA  LEU A   5      25.467  -3.511 -21.550  0.00  0.00    +0.149 C 
BRANCH  11  12
ATOM     12  C   LEU A   5      26.338  -4.176 -20.484  0.00  0.00    +0.241 C 
ATOM     13  O   LEU A   5      25.840  -4.537 -19.419  0.00  0.00    -0.273 OA
ATOM     14  N   LEU A   6      27.633  -4.287 -20.733  0.00  0.00    -0.298 N 
ATOM     15  H   LEU A   6      28.031  -3.835 -21.581  0.00  0.00    +0.150 HD
BRANCH  14  16
ATOM     16  CA  LEU A   6      28.520  -5.039 -19.831  0.00  0.00    +0.137 C 
BRANCH  16  17
ATOM     17  C   LEU A   6      29.558  -4.195 -19.079  0.00  0.00    +0.227 C 
ATOM     18  O   LEU A   6      30.301  -3.377 -19.696  0.00  0.00    -0.286 OA
ENDBRANCH  16  17
BRANCH  16  19
ATOM     19  CB  LEU A   6      29.282  -6.107 -20.623  0.00  0.00    +0.028 C 
BRANCH  19  20
ATOM     20  CG  LEU A   6      28.504  -7.001 -21.592  0.00  0.00    +0.002 C 
ATOM     21  CD2 LEU A   6      27.338  -7.753 -20.920  0.00  0.00    +0.000 C 
ATOM     22  CD1 LEU A   6      29.529  -7.971 -22.185  0.00  0.00    +0.000 C 
ENDBRANCH  19  20
ENDBRANCH  16  19
ENDBRANCH  14  16
ENDBRANCH  11  12
BRANCH  11  23
ATOM     23  CB  LEU A   5      24.879  -2.176 -21.026  0.00  0.00    +0.029 C 
BRANCH  23  24
ATOM     24  CG  LEU A   5      25.927  -1.109 -20.665  0.00  0.00    +0.002 C 
ATOM     25  CD2 LEU A   5      25.365   0.051 -19.885  0.00  0.00    +0.000 C 
ATOM     26  CD1 LEU A   5      26.624  -0.604 -21.937  0.00  0.00    +0.000 C 
ENDBRANCH  23  24
ENDBRANCH  11  23
ENDBRANCH   8  11
ENDBRANCH   5   7
ENDBRANCH   3   5
BRANCH   1  27
ATOM     27  CA  ALA A   3      20.466  -5.470 -25.911  0.00  0.00    +0.149 C 
ATOM     28  CB  ALA A   3      19.992  -4.043 -26.044  0.00  0.00    +0.031 C 
BRANCH  27  30
ATOM     29  C   ILE A   2      19.379  -7.461 -26.818  0.00  0.00    +0.241 C 
ATOM     30  N   ALA A   3      19.332  -6.378 -26.043  0.00  0.00    -0.297 N 
ATOM     31  H   ALA A   3      18.459  -6.174 -25.516  0.00  0.00    +0.150 HD
ATOM     32  O   ILE A   2      20.360  -7.769 -27.481  0.00  0.00    -0.273 OA
BRANCH  29  33
ATOM     33  CA  ILE A   2      18.130  -8.331 -26.858  0.00  0.00    +0.148 C 
BRANCH  33  36
ATOM     34  C   THR A   1      16.661  -7.450 -28.541  0.00  0.00    +0.241 C 
ATOM     35  O   THR A   1      15.967  -6.832 -27.692  0.00  0.00    -0.274 OA
ATOM     36  N   ILE A   2      17.676  -8.234 -28.212  0.00  0.00    -0.297 N 
ATOM     37  H   ILE A   2      18.152  -8.790 -28.951  0.00  0.00    +0.150 HD
BRANCH  34  38
ATOM     38  CA  THR A   1      16.364  -7.363 -30.042  0.00  0.00    +0.172 C 
BRANCH  38  39
ATOM     39  N   THR A   1      14.983  -7.772 -30.266  0.00  0.00    -0.236 NA
ATOM     40  H   THR A   1      14.222  -7.143 -29.938  0.00  0.00    +0.142 HD
ENDBRANCH  38  39
BRANCH  38  41
ATOM     41  CB  THR A   1      16.669  -5.906 -30.554  0.00  0.00    +0.135 C 
ATOM     42  CG2 THR A   1      18.153  -5.557 -30.344  0.00  0.00    +0.034 C 
BRANCH  41  43
ATOM     43  OG1 THR A   1      16.377  -5.819 -31.959  0.00  0.00    -0.383 OA
ATOM     44  HG1 THR A   1      16.570  -4.902 -32.279  0.00  0.00    +0.210 HD
ENDBRANCH  41  43
ENDBRANCH  38  41
ENDBRANCH  34  38
ENDBRANCH  33  36
BRANCH  33  45
ATOM     45  CB  ILE A   2      18.469  -9.774 -26.527  0.00  0.00    +0.027 C 
ATOM     46  CG2 ILE A   2      19.063  -9.906 -25.079  0.00  0.00    +0.002 C 
BRANCH  45  47
ATOM     47  CG1 ILE A   2      17.232 -10.670 -26.742  0.00  0.00    +0.002 C 
ATOM     48  CD1 ILE A   2      15.957 -10.232 -25.966  0.00  0.00    +0.000 C 
ENDBRANCH  45  47
ENDBRANCH  33  45
ENDBRANCH  29  33
ENDBRANCH  27  30
ENDBRANCH   1  27
TORSDOF 20
REMARK  Name = ../refined-set-2016/3neo/3neo_pocket.pdb
REMARK  199 active torsions:
REMARK  status: ('A' for Active; 'I' for Inactive)
REMARK    1  A    between atoms: _1  and  _3
REMARK    2  A    between atoms: _3  and  _4
REMARK    3  A    between atoms: _3  and  _6
REMARK    4  A    between atoms: _6  and  _7
REMARK    5  A    between atoms: _7  and  _8
REMARK    6  A    between atoms: _10  and  _12
REMARK    7  A    between atoms: _12  and  _13
REMARK    8  A    between atoms: _12  and  _15
REMARK    9  A    between atoms: _18  and  _20
REMARK   10  A    between atoms: _20  and  _21
REMARK   11  A    between atoms: _20  and  _23
REMARK   12  A    between atoms: _23  and  _24
REMARK   13  A    between atoms: _24  and  _25
REMARK   14  A    between atoms: _25  and  _26
REMARK   15  A    between atoms: _26  and  _27
REMARK   16  A    between atoms: _31  and  _33
REMARK   17  A    between atoms: _33  and  _34
REMARK   18  A    between atoms: _33  and  _36
REMARK   19  A    between atoms: _39  and  _41
REMARK   20  A    between atoms: _41  and  _42
REMARK   21  A    between atoms: _41  and  _44
REMARK   22  A    between atoms: _44  and  _45
REMARK   23  A    between atoms: _48  and  _50
REMARK   24  A    between atoms: _50  and  _51
REMARK   25  A    between atoms: _50  and  _53
REMARK   26  A    between atoms: _53  and  _54
REMARK   27  A    between atoms: _57  and  _59
REMARK   28  A    between atoms: _59  and  _60
REMARK   29  A    between atoms: _63  and  _65
REMARK   30  A    between atoms: _65  and  _66
REMARK   31  A    between atoms: _65  and  _68
REMARK   32  A    between atoms: _68  and  _69
REMARK   33  A    between atoms: _71  and  _73
REMARK   34  A    between atoms: _73  and  _74
REMARK   35  A    between atoms: _76  and  _78
REMARK   36  A    between atoms: _78  and  _79
REMARK   37  A    between atoms: _78  and  _81
REMARK   38  A    between atoms: _81  and  _82
REMARK   39  A    between atoms: _82  and  _83
REMARK   40  A    between atoms: _86  and  _88
REMARK   41  A    between atoms: _88  and  _89
REMARK   42  A    between atoms: _88  and  _91
REMARK   43  A    between atoms: _91  and  _92
REMARK   44  A    between atoms: _95  and  _97
REMARK   45  A    between atoms: _97  and  _98
REMARK   46  A    between atoms: _97  and  _100
REMARK   47  A    between atoms: _100  and  _101
REMARK   48  A    between atoms: _106  and  _108
REMARK   49  A    between atoms: _108  and  _109
REMARK   50  A    between atoms: _108  and  _111
REMARK   51  A    between atoms: _111  and  _112
REMARK   52  A    between atoms: _115  and  _117
REMARK   53  A    between atoms: _117  and  _118
REMARK   54  A    between atoms: _117  and  _120
REMARK   55  A    between atoms: _120  and  _121
REMARK   56  A    between atoms: _124  and  _126
REMARK   57  A    between atoms: _126  and  _127
REMARK   58  A    between atoms: _130  and  _132
REMARK   59  A    between atoms: _132  and  _133
REMARK   60  A    between atoms: _136  and  _138
REMARK   61  A    between atoms: _138  and  _139
REMARK   62  A    between atoms: _138  and  _141
REMARK   63  A    between atoms: _141  and  _142
REMARK   64  A    between atoms: _145  and  _147
REMARK   65  A    between atoms: _147  and  _148
REMARK   66  A    between atoms: _147  and  _150
REMARK   67  A    between atoms: _150  and  _151
REMARK   68  A    between atoms: _154  and  _156
REMARK   69  A    between atoms: _156  and  _157
REMARK   70  A    between atoms: _156  and  _159
REMARK   71  A    between atoms: _159  and  _160
REMARK   72  A    between atoms: _165  and  _166
REMARK   73  A    between atoms: _168  and  _170
REMARK   74  A    between atoms: _170  and  _171
REMARK   75  A    between atoms: _170  and  _173
REMARK   76  A    between atoms: _173  and  _174
REMARK   77  A    between atoms: _176  and  _178
REMARK   78  A    between atoms: _178  and  _179
REMARK   79  A    between atoms: _178  and  _181
REMARK   80  A    between atoms: _181  and  _182
REMARK   81  A    between atoms: _185  and  _187
REMARK   82  A    between atoms: _187  and  _188
REMARK   83  A    between atoms: _187  and  _190
REMARK   84  A    between atoms: _190  and  _191
REMARK   85  A    between atoms: _194  and  _196
REMARK   86  A    between atoms: _196  and  _197
REMARK   87  A    between atoms: _200  and  _202
REMARK   88  A    between atoms: _202  and  _203
REMARK   89  A    between atoms: _202  and  _205
REMARK   90  A    between atoms: _208  and  _210
REMARK   91  A    between atoms: _210  and  _211
REMARK   92  A    between atoms: _210  and  _213
REMARK   93  A    between atoms: _213  and  _214
REMARK   94  A    between atoms: _216  and  _218
REMARK   95  A    between atoms: _218  and  _219
REMARK   96  A    between atoms: _218  and  _221
REMARK   97  A    between atoms: _221  and  _222
REMARK   98  A    between atoms: _227  and  _228
REMARK   99  A    between atoms: _230  and  _232
REMARK  100  A    between atoms: _232  and  _233
REMARK  101  A    between atoms: _232  and  _235
REMARK  102  A    between atoms: _235  and  _236
REMARK  103  A    between atoms: _238  and  _240
REMARK  104  A    between atoms: _240  and  _241
REMARK  105  A    between atoms: _240  and  _243
REMARK  106  A    between atoms: _243  and  _244
REMARK  107  A    between atoms: _244  and  _245
REMARK  108  A    between atoms: _247  and  _249
REMARK  109  A    between atoms: _249  and  _250
REMARK  110  A    between atoms: _249  and  _252
REMARK  111  A    between atoms: _255  and  _257
REMARK  112  A    between atoms: _257  and  _258
REMARK  113  A    between atoms: _257  and  _260
REMARK  114  A    between atoms: _260  and  _261
REMARK  115  A    between atoms: _261  and  _262
REMARK  116  A    between atoms: _262  and  _263
REMARK  117  A    between atoms: _263  and  _264
REMARK  118  A    between atoms: _268  and  _270
REMARK  119  A    between atoms: _270  and  _271
REMARK  120  A    between atoms: _270  and  _273
REMARK  121  A    between atoms: _276  and  _278
REMARK  122  A    between atoms: _278  and  _279
REMARK  123  A    between atoms: _278  and  _281
REMARK  124  A    between atoms: _281  and  _282
REMARK  125  A    between atoms: _285  and  _287
REMARK  126  A    between atoms: _287  and  _288
REMARK  127  A    between atoms: _287  and  _290
REMARK  128  A    between atoms: _290  and  _291
REMARK  129  A    between atoms: _294  and  _296
REMARK  130  A    between atoms: _296  and  _297
REMARK  131  A    between atoms: _296  and  _299
REMARK  132  A    between atoms: _299  and  _300
REMARK  133  A    between atoms: _302  and  _304
REMARK  134  A    between atoms: _304  and  _305
REMARK  135  A    between atoms: _307  and  _309
REMARK  136  A    between atoms: _309  and  _310
REMARK  137  A    between atoms: _309  and  _312
REMARK  138  A    between atoms: _312  and  _313
REMARK  139  A    between atoms: _313  and  _314
REMARK  140  A    between atoms: _317  and  _319
REMARK  141  A    between atoms: _319  and  _320
REMARK  142  A    between atoms: _319  and  _322
REMARK  143  A    between atoms: _322  and  _323
REMARK  144  A    between atoms: _326  and  _328
REMARK  145  A    between atoms: _328  and  _329
REMARK  146  A    between atoms: _328  and  _331
REMARK  147  A    between atoms: _331  and  _332
REMARK  148  A    between atoms: _335  and  _337
REMARK  149  A    between atoms: _337  and  _338
REMARK  150  A    between atoms: _341  and  _343
REMARK  151  A    between atoms: _343  and  _344
REMARK  152  A    between atoms: _347  and  _349
REMARK  153  A    between atoms: _349  and  _350
REMARK  154  A    between atoms: _349  and  _352
REMARK  155  A    between atoms: _352  and  _353
REMARK  156  A    between atoms: _356  and  _358
REMARK  157  A    between atoms: _358  and  _359
REMARK  158  A    between atoms: _358  and  _361
REMARK  159  A    between atoms: _361  and  _362
REMARK  160  A    between atoms: _365  and  _367
REMARK  161  A    between atoms: _367  and  _368
REMARK  162  A    between atoms: _367  and  _370
REMARK  163  A    between atoms: _370  and  _371
REMARK  164  A    between atoms: _376  and  _377
REMARK  165  A    between atoms: _379  and  _381
REMARK  166  A    between atoms: _381  and  _382
REMARK  167  A    between atoms: _381  and  _384
REMARK  168  A    between atoms: _384  and  _385
REMARK  169  A    between atoms: _387  and  _389
REMARK  170  A    between atoms: _389  and  _390
REMARK  171  A    between atoms: _389  and  _392
REMARK  172  A    between atoms: _392  and  _393
REMARK  173  A    between atoms: _396  and  _398
REMARK  174  A    between atoms: _398  and  _399
REMARK  175  A    between atoms: _398  and  _401
REMARK  176  A    between atoms: _401  and  _402
REMARK  177  A    between atoms: _405  and  _407
REMARK  178  A    between atoms: _407  and  _408
REMARK  179  A    between atoms: _411  and  _413
REMARK  180  A    between atoms: _413  and  _414
REMARK  181  A    between atoms: _413  and  _416
REMARK  182  A    between atoms: _419  and  _421
REMARK  183  A    between atoms: _421  and  _422
REMARK  184  A    between atoms: _421  and  _424
REMARK  185  A    between atoms: _424  and  _425
REMARK  186  A    between atoms: _430  and  _431
REMARK  187  A    between atoms: _433  and  _435
REMARK  188  A    between atoms: _435  and  _436
REMARK  189  A    between atoms: _435  and  _438
REMARK  190  A    between atoms: _438  and  _439
REMARK  191  A    between atoms: _441  and  _443
REMARK  192  A    between atoms: _443  and  _444
REMARK  193  A    between atoms: _443  and  _446
REMARK  194  A    between atoms: _446  and  _447
REMARK  195  A    between atoms: _452  and  _453
REMARK  196  A    between atoms: _455  and  _457
REMARK  197  A    between atoms: _457  and  _458
REMARK  198  A    between atoms: _457  and  _460
REMARK  199  A    between atoms: _460  and  _461
REMARK                            x       y       z     vdW  Elec       q    Type
REMARK                         _______ _______ _______ _____ _____    ______ ____
ROOT
ATOM      1  CA  THR A   3      19.626  -6.248 -20.408  0.00  0.00    +0.176 C 
ENDROOT
BRANCH   1   3
ATOM      2  C   SER A   2      21.488  -5.418 -19.108  0.00  0.00    +0.243 C 
ATOM      3  N   THR A   3      20.193  -5.687 -19.196  0.00  0.00    -0.295 N 
ATOM      4  H   THR A   3      19.574  -5.493 -18.383  0.00  0.00    +0.150 HD
ATOM      5  O   SER A   2      22.325  -5.795 -19.945  0.00  0.00    -0.273 OA
BRANCH   2   6
ATOM      6  CA  SER A   2      21.927  -4.686 -17.865  0.00  0.00    +0.178 C 
BRANCH   6   9
ATOM      7  C   TYR A   1      23.745  -5.572 -16.547  0.00  0.00    +0.239 C 
ATOM      8  O   TYR A   1      23.046  -5.747 -15.535  0.00  0.00    -0.274 OA
ATOM      9  N   SER A   2      23.300  -5.041 -17.673  0.00  0.00    -0.295 N 
ATOM     10  H   SER A   2      23.973  -4.875 -18.448  0.00  0.00    +0.150 HD
BRANCH   7  11
ATOM     11  CA  TYR A   1      25.201  -5.967 -16.592  0.00  0.00    +0.149 C 
BRANCH  11  12
ATOM     12  N   TYR A   1      25.726  -6.033 -15.232  0.00  0.00    -0.238 NA
ATOM     13  H   TYR A   1      25.101  -6.310 -14.449  0.00  0.00    +0.142 HD
ENDBRANCH  11  12
BRANCH  11  14
ATOM     14  CB  TYR A   1      25.368  -7.280 -17.383  0.00  0.00    +0.053 C 
BRANCH  14  15
ATOM     15  CG  TYR A   1      24.532  -8.434 -16.844  0.00  0.00    -0.020 A 
ATOM     16  CD2 TYR A   1      25.061  -9.256 -15.867  0.00  0.00    -0.001 A 
ATOM     17  CE2 TYR A   1      24.353 -10.306 -15.355  0.00  0.00    +0.036 A 
ATOM     18  CZ  TYR A   1      23.058 -10.544 -15.754  0.00  0.00    +0.134 A 
ATOM     19  CE1 TYR A   1      22.442  -9.736 -16.726  0.00  0.00    +0.036 A 
ATOM     20  CD1 TYR A   1      23.210  -8.656 -17.265  0.00  0.00    -0.001 A 
BRANCH  18  21
ATOM     21  OH  TYR A   1      22.456 -11.608 -15.140  0.00  0.00    -0.506 OA
ATOM     22  HH  TYR A   1      22.970 -12.432 -15.331  0.00  0.00    +0.292 HD
ENDBRANCH  18  21
ENDBRANCH  14  15
ENDBRANCH  11  14
ENDBRANCH   7  11
ENDBRANCH   6   9
BRANCH   6  23
ATOM     23  CB  SER A   2      21.825  -3.180 -18.040  0.00  0.00    +0.166 C 
BRANCH  23  24
ATOM     24  OG  SER A   2      22.504  -2.529 -16.974  0.00  0.00    -0.380 OA
ATOM     25  H   SER A   2      22.091  -2.789 -16.113  0.00  0.00    +0.211 HD
ENDBRANCH  23  24
ENDBRANCH   6  23
ENDBRANCH   2   6
ENDBRANCH   1   3
BRANCH   1  26
ATOM     26  C   THR A   3      18.242  -5.674 -20.647  0.00  0.00    +0.243 C 
ATOM     27  O   THR A   3      17.477  -5.420 -19.703  0.00  0.00    -0.273 OA
ATOM     28  N   THR A   4      17.952  -5.411 -21.913  0.00  0.00    -0.295 N 
ATOM     29  H   THR A   4      18.662  -5.584 -22.653  0.00  0.00    +0.150 HD
BRANCH  28  30
ATOM     30  CA  THR A   4      16.653  -4.885 -22.270  0.00  0.00    +0.176 C 
BRANCH  30  31
ATOM     31  C   THR A   4      16.210  -5.554 -23.554  0.00  0.00    +0.243 C 
ATOM     32  N   ALA A   5      14.914  -5.505 -23.804  0.00  0.00    -0.297 N 
ATOM     33  H   ALA A   5      14.288  -4.992 -23.151  0.00  0.00    +0.150 HD
ATOM     34  O   THR A   4      17.017  -6.135 -24.261  0.00  0.00    -0.273 OA
BRANCH  32  35
ATOM     35  CA  ALA A   5      14.356  -6.141 -24.952  0.00  0.00    +0.149 C 
ATOM     36  CB  ALA A   5      13.436  -7.301 -24.498  0.00  0.00    +0.031 C 
BRANCH  35  37
ATOM     37  C   ALA A   5      13.589  -5.103 -25.739  0.00  0.00    +0.241 C 
ATOM     38  O   ALA A   5      12.854  -4.282 -25.166  0.00  0.00    -0.273 OA
ATOM     39  N   VAL A   6      13.794  -5.108 -27.053  0.00  0.00    -0.298 N 
ATOM     40  H   VAL A   6      14.559  -5.695 -27.443  0.00  0.00    +0.150 HD
BRANCH  39  41
ATOM     41  CA  VAL A   6      12.975  -4.311 -27.966  0.00  0.00    +0.137 C 
BRANCH  41  42
ATOM     42  CB  VAL A   6      13.814  -3.448 -28.889  0.00  0.00    +0.026 C 
ATOM     43  CG2 VAL A   6      14.805  -2.607 -28.075  0.00  0.00    +0.002 C 
ATOM     44  CG1 VAL A   6      12.913  -2.541 -29.744  0.00  0.00    +0.002 C 
ENDBRANCH  41  42
BRANCH  41  45
ATOM     45  C   VAL A   6      12.169  -5.308 -28.782  0.00  0.00    +0.227 C 
ATOM     46  O   VAL A   6      12.733  -6.161 -29.466  0.00  0.00    -0.286 OA
ENDBRANCH  41  45
ENDBRANCH  39  41
ENDBRANCH  35  37
ENDBRANCH  32  35
ENDBRANCH  30  31
BRANCH  30  47
ATOM     47  CB  THR A   4      16.595  -3.323 -22.331  0.00  0.00    +0.137 C 
ATOM     48  CG2 THR A   4      17.231  -2.754 -23.605  0.00  0.00    +0.034 C 
BRANCH  47  49
ATOM     49  OG1 THR A   4      15.225  -2.899 -22.253  0.00  0.00    -0.382 OA
ATOM     50  HG1 THR A   4      14.831  -3.214 -21.401  0.00  0.00    +0.210 HD
ENDBRANCH  47  49
ENDBRANCH  30  47
ENDBRANCH  28  30
ENDBRANCH   1  26
BRANCH   1  51
ATOM     51  CB  THR A   3      19.595  -7.767 -20.441  0.00  0.00    +0.137 C 
ATOM     52  CG2 THR A   3      18.655  -8.405 -19.378  0.00  0.00    +0.034 C 
BRANCH  51  53
ATOM     53  OG1 THR A   3      19.137  -8.147 -21.724  0.00  0.00    -0.382 OA
ATOM     54  HG1 THR A   3      19.756  -7.795 -22.412  0.00  0.00    +0.210 HD
ENDBRANCH  51  53
ENDBRANCH   1  51
TORSDOF 22
REMARK  Name = ../refined-set-2016/3neo/3neo_pocket.pdb
REMARK  199 active torsions:
REMARK  status: ('A' for Active; 'I' for Inactive)
REMARK    1  A    between atoms: _1  and  _3
REMARK    2  A    between atoms: _3  and  _4
REMARK    3  A    between atoms: _3  and  _6
REMARK    4  A    between atoms: _6  and  _7
REMARK    5  A    between atoms: _7  and  _8
REMARK    6  A    between atoms: _10  and  _12
REMARK    7  A    between atoms: _12  and  _13
REMARK    8  A    between atoms: _12  and  _15
REMARK    9  A    between atoms: _18  and  _20
REMARK   10  A    between atoms: _20  and  _21
REMARK   11  A    between atoms: _20  and  _23
REMARK   12  A    between atoms: _23  and  _24
REMARK   13  A    between atoms: _24  and  _25
REMARK   14  A    between atoms: _25  and  _26
REMARK   15  A    between atoms: _26  and  _27
REMARK   16  A    between atoms: _31  and  _33
REMARK   17  A    between atoms: _33  and  _34
REMARK   18  A    between atoms: _33  and  _36
REMARK   19  A    between atoms: _39  and  _41
REMARK   20  A    between atoms: _41  and  _42
REMARK   21  A    between atoms: _41  and  _44
REMARK   22  A    between atoms: _44  and  _45
REMARK   23  A    between atoms: _48  and  _50
REMARK   24  A    between atoms: _50  and  _51
REMARK   25  A    between atoms: _50  and  _53
REMARK   26  A    between atoms: _53  and  _54
REMARK   27  A    between atoms: _57  and  _59
REMARK   28  A    between atoms: _59  and  _60
REMARK   29  A    between atoms: _63  and  _65
REMARK   30  A    between atoms: _65  and  _66
REMARK   31  A    between atoms: _65  and  _68
REMARK   32  A    between atoms: _68  and  _69
REMARK   33  A    between atoms: _71  and  _73
REMARK   34  A    between atoms: _73  and  _74
REMARK   35  A    between atoms: _76  and  _78
REMARK   36  A    between atoms: _78  and  _79
REMARK   37  A    between atoms: _78  and  _81
REMARK   38  A    between atoms: _81  and  _82
REMARK   39  A    between atoms: _82  and  _83
REMARK   40  A    between atoms: _86  and  _88
REMARK   41  A    between atoms: _88  and  _89
REMARK   42  A    between atoms: _88  and  _91
REMARK   43  A    between atoms: _91  and  _92
REMARK   44  A    between atoms: _95  and  _97
REMARK   45  A    between atoms: _97  and  _98
REMARK   46  A    between atoms: _97  and  _100
REMARK   47  A    between atoms: _100  and  _101
REMARK   48  A    between atoms: _106  and  _108
REMARK   49  A    between atoms: _108  and  _109
REMARK   50  A    between atoms: _108  and  _111
REMARK   51  A    between atoms: _111  and  _112
REMARK   52  A    between atoms: _115  and  _117
REMARK   53  A    between atoms: _117  and  _118
REMARK   54  A    between atoms: _117  and  _120
REMARK   55  A    between atoms: _120  and  _121
REMARK   56  A    between atoms: _124  and  _126
REMARK   57  A    between atoms: _126  and  _127
REMARK   58  A    between atoms: _130  and  _132
REMARK   59  A    between atoms: _132  and  _133
REMARK   60  A    between atoms: _136  and  _138
REMARK   61  A    between atoms: _138  and  _139
REMARK   62  A    between atoms: _138  and  _141
REMARK   63  A    between atoms: _141  and  _142
REMARK   64  A    between atoms: _145  and  _147
REMARK   65  A    between atoms: _147  and  _148
REMARK   66  A    between atoms: _147  and  _150
REMARK   67  A    between atoms: _150  and  _151
REMARK   68  A    between atoms: _154  and  _156
REMARK   69  A    between atoms: _156  and  _157
REMARK   70  A    between atoms: _156  and  _159
REMARK   71  A    between atoms: _159  and  _160
REMARK   72  A    between atoms: _165  and  _166
REMARK   73  A    between atoms: _168  and  _170
REMARK   74  A    between atoms: _170  and  _171
REMARK   75  A    between atoms: _170  and  _173
REMARK   76  A    between atoms: _173  and  _174
REMARK   77  A    between atoms: _176  and  _178
REMARK   78  A    between atoms: _178  and  _179
REMARK   79  A    between atoms: _178  and  _181
REMARK   80  A    between atoms: _181  and  _182
REMARK   81  A    between atoms: _185  and  _187
REMARK   82  A    between atoms: _187  and  _188
REMARK   83  A    between atoms: _187  and  _190
REMARK   84  A    between atoms: _190  and  _191
REMARK   85  A    between atoms: _194  and  _196
REMARK   86  A    between atoms: _196  and  _197
REMARK   87  A    between atoms: _200  and  _202
REMARK   88  A    between atoms: _202  and  _203
REMARK   89  A    between atoms: _202  and  _205
REMARK   90  A    between atoms: _208  and  _210
REMARK   91  A    between atoms: _210  and  _211
REMARK   92  A    between atoms: _210  and  _213
REMARK   93  A    between atoms: _213  and  _214
REMARK   94  A    between atoms: _216  and  _218
REMARK   95  A    between atoms: _218  and  _219
REMARK   96  A    between atoms: _218  and  _221
REMARK   97  A    between atoms: _221  and  _222
REMARK   98  A    between atoms: _227  and  _228
REMARK   99  A    between atoms: _230  and  _232
REMARK  100  A    between atoms: _232  and  _233
REMARK  101  A    between atoms: _232  and  _235
REMARK  102  A    between atoms: _235  and  _236
REMARK  103  A    between atoms: _238  and  _240
REMARK  104  A    between atoms: _240  and  _241
REMARK  105  A    between atoms: _240  and  _243
REMARK  106  A    between atoms: _243  and  _244
REMARK  107  A    between atoms: _244  and  _245
REMARK  108  A    between atoms: _247  and  _249
REMARK  109  A    between atoms: _249  and  _250
REMARK  110  A    between atoms: _249  and  _252
REMARK  111  A    between atoms: _255  and  _257
REMARK  112  A    between atoms: _257  and  _258
REMARK  113  A    between atoms: _257  and  _260
REMARK  114  A    between atoms: _260  and  _261
REMARK  115  A    between atoms: _261  and  _262
REMARK  116  A    between atoms: _262  and  _263
REMARK  117  A    between atoms: _263  and  _264
REMARK  118  A    between atoms: _268  and  _270
REMARK  119  A    between atoms: _270  and  _271
REMARK  120  A    between atoms: _270  and  _273
REMARK  121  A    between atoms: _276  and  _278
REMARK  122  A    between atoms: _278  and  _279
REMARK  123  A    between atoms: _278  and  _281
REMARK  124  A    between atoms: _281  and  _282
REMARK  125  A    between atoms: _285  and  _287
REMARK  126  A    between atoms: _287  and  _288
REMARK  127  A    between atoms: _287  and  _290
REMARK  128  A    between atoms: _290  and  _291
REMARK  129  A    between atoms: _294  and  _296
REMARK  130  A    between atoms: _296  and  _297
REMARK  131  A    between atoms: _296  and  _299
REMARK  132  A    between atoms: _299  and  _300
REMARK  133  A    between atoms: _302  and  _304
REMARK  134  A    between atoms: _304  and  _305
REMARK  135  A    between atoms: _307  and  _309
REMARK  136  A    between atoms: _309  and  _310
REMARK  137  A    between atoms: _309  and  _312
REMARK  138  A    between atoms: _312  and  _313
REMARK  139  A    between atoms: _313  and  _314
REMARK  140  A    between atoms: _317  and  _319
REMARK  141  A    between atoms: _319  and  _320
REMARK  142  A    between atoms: _319  and  _322
REMARK  143  A    between atoms: _322  and  _323
REMARK  144  A    between atoms: _326  and  _328
REMARK  145  A    between atoms: _328  and  _329
REMARK  146  A    between atoms: _328  and  _331
REMARK  147  A    between atoms: _331  and  _332
REMARK  148  A    between atoms: _335  and  _337
REMARK  149  A    between atoms: _337  and  _338
REMARK  150  A    between atoms: _341  and  _343
REMARK  151  A    between atoms: _343  and  _344
REMARK  152  A    between atoms: _347  and  _349
REMARK  153  A    between atoms: _349  and  _350
REMARK  154  A    between atoms: _349  and  _352
REMARK  155  A    between atoms: _352  and  _353
REMARK  156  A    between atoms: _356  and  _358
REMARK  157  A    between atoms: _358  and  _359
REMARK  158  A    between atoms: _358  and  _361
REMARK  159  A    between atoms: _361  and  _362
REMARK  160  A    between atoms: _365  and  _367
REMARK  161  A    between atoms: _367  and  _368
REMARK  162  A    between atoms: _367  and  _370
REMARK  163  A    between atoms: _370  and  _371
REMARK  164  A    between atoms: _376  and  _377
REMARK  165  A    between atoms: _379  and  _381
REMARK  166  A    between atoms: _381  and  _382
REMARK  167  A    between atoms: _381  and  _384
REMARK  168  A    between atoms: _384  and  _385
REMARK  169  A    between atoms: _387  and  _389
REMARK  170  A    between atoms: _389  and  _390
REMARK  171  A    between atoms: _389  and  _392
REMARK  172  A    between atoms: _392  and  _393
REMARK  173  A    between atoms: _396  and  _398
REMARK  174  A    between atoms: _398  and  _399
REMARK  175  A    between atoms: _398  and  _401
REMARK  176  A    between atoms: _401  and  _402
REMARK  177  A    between atoms: _405  and  _407
REMARK  178  A    between atoms: _407  and  _408
REMARK  179  A    between atoms: _411  and  _413
REMARK  180  A    between atoms: _413  and  _414
REMARK  181  A    between atoms: _413  and  _416
REMARK  182  A    between atoms: _419  and  _421
REMARK  183  A    between atoms: _421  and  _422
REMARK  184  A    between atoms: _421  and  _424
REMARK  185  A    between atoms: _424  and  _425
REMARK  186  A    between atoms: _430  and  _431
REMARK  187  A    between atoms: _433  and  _435
REMARK  188  A    between atoms: _435  and  _436
REMARK  189  A    between atoms: _435  and  _438
REMARK  190  A    between atoms: _438  and  _439
REMARK  191  A    between atoms: _441  and  _443
REMARK  192  A    between atoms: _443  and  _444
REMARK  193  A    between atoms: _443  and  _446
REMARK  194  A    between atoms: _446  and  _447
REMARK  195  A    between atoms: _452  and  _453
REMARK  196  A    between atoms: _455  and  _457
REMARK  197  A    between atoms: _457  and  _458
REMARK  198  A    between atoms: _457  and  _460
REMARK  199  A    between atoms: _460  and  _461
REMARK                            x       y       z     vdW  Elec       q    Type
REMARK                         _______ _______ _______ _____ _____    ______ ____
ROOT
ATOM      1  C   SER A   2      15.012  -4.951 -17.223  0.00  0.00    +0.243 C 
ATOM      2  O   SER A   2      14.198  -4.773 -16.304  0.00  0.00    -0.273 OA
ATOM      3  N   TYR A   3      16.214  -5.456 -17.000  0.00  0.00    -0.297 N 
ATOM      4  H   TYR A   3      16.790  -5.834 -17.779  0.00  0.00    +0.150 HD
ENDROOT
BRANCH   3   5
ATOM      5  CA  TYR A   3      16.703  -5.466 -15.634  0.00  0.00    +0.153 C 
BRANCH   5   6
ATOM      6  C   TYR A   3      18.199  -5.276 -15.664  0.00  0.00    +0.241 C 
ATOM      7  N   SER A   4      18.714  -4.765 -14.555  0.00  0.00    -0.296 N 
ATOM      8  H   SER A   4      18.066  -4.429 -13.814  0.00  0.00    +0.150 HD
ATOM      9  O   TYR A   3      18.855  -5.578 -16.667  0.00  0.00    -0.273 OA
BRANCH   7  10
ATOM     10  CA  SER A   4      20.131  -4.656 -14.333  0.00  0.00    +0.166 C 
BRANCH  10  11
ATOM     11  C   SER A   4      20.491  -5.327 -13.014  0.00  0.00    +0.229 C 
ATOM     12  O   SER A   4      19.673  -5.430 -12.093  0.00  0.00    -0.286 OA
ENDBRANCH  10  11
BRANCH  10  13
ATOM     13  CB  SER A   4      20.549  -3.187 -14.314  0.00  0.00    +0.165 C 
BRANCH  13  14
ATOM     14  OG  SER A   4      20.182  -2.555 -15.532  0.00  0.00    -0.380 OA
ATOM     15  H   SER A   4      19.201  -2.611 -15.649  0.00  0.00    +0.211 HD
ENDBRANCH  13  14
ENDBRANCH  10  13
ENDBRANCH   7  10
ENDBRANCH   5   6
BRANCH   5  16
ATOM     16  CB  TYR A   3      16.306  -6.732 -14.850  0.00  0.00    +0.055 C 
BRANCH  16  17
ATOM     17  CG  TYR A   3      17.043  -7.990 -15.258  0.00  0.00    -0.020 A 
ATOM     18  CD2 TYR A   3      18.262  -8.287 -14.683  0.00  0.00    -0.001 A 
ATOM     19  CE2 TYR A   3      18.981  -9.401 -15.021  0.00  0.00    +0.036 A 
ATOM     20  CZ  TYR A   3      18.504 -10.279 -15.964  0.00  0.00    +0.134 A 
ATOM     21  CE1 TYR A   3      17.268 -10.061 -16.585  0.00  0.00    +0.036 A 
ATOM     22  CD1 TYR A   3      16.527  -8.881 -16.241  0.00  0.00    -0.001 A 
BRANCH  20  23
ATOM     23  OH  TYR A   3      19.335 -11.372 -16.198  0.00  0.00    -0.506 OA
ATOM     24  HH  TYR A   3      20.147 -11.294 -15.637  0.00  0.00    +0.292 HD
ENDBRANCH  20  23
ENDBRANCH  16  17
ENDBRANCH   5  16
ENDBRANCH   3   5
BRANCH   1  25
ATOM     25  CA  SER A   2      14.679  -4.583 -18.649  0.00  0.00    +0.178 C 
BRANCH  25  27
ATOM     26  C   TYR A   1      12.771  -5.004 -20.082  0.00  0.00    +0.239 C 
ATOM     27  N   SER A   2      13.246  -4.685 -18.888  0.00  0.00    -0.295 N 
ATOM     28  H   SER A   2      12.584  -4.504 -18.107  0.00  0.00    +0.150 HD
ATOM     29  O   TYR A   1      13.485  -5.204 -21.044  0.00  0.00    -0.274 OA
BRANCH  26  30
ATOM     30  CA  TYR A   1      11.262  -5.089 -20.231  0.00  0.00    +0.149 C 
BRANCH  30  31
ATOM     31  N   TYR A   1      10.492  -4.571 -19.114  0.00  0.00    -0.238 NA
ATOM     32  H   TYR A   1      10.458  -3.544 -18.955  0.00  0.00    +0.142 HD
ENDBRANCH  30  31
BRANCH  30  33
ATOM     33  CB  TYR A   1      10.862  -4.425 -21.530  0.00  0.00    +0.053 C 
BRANCH  33  34
ATOM     34  CG  TYR A   1       9.627  -5.015 -22.108  0.00  0.00    -0.020 A 
ATOM     35  CD2 TYR A   1       8.400  -4.790 -21.503  0.00  0.00    -0.001 A 
ATOM     36  CE2 TYR A   1       7.222  -5.341 -22.025  0.00  0.00    +0.036 A 
ATOM     37  CZ  TYR A   1       7.267  -6.131 -23.159  0.00  0.00    +0.134 A 
ATOM     38  CE1 TYR A   1       8.492  -6.388 -23.790  0.00  0.00    +0.036 A 
ATOM     39  CD1 TYR A   1       9.670  -5.816 -23.249  0.00  0.00    -0.001 A 
BRANCH  37  40
ATOM     40  OH  TYR A   1       6.074  -6.645 -23.642  0.00  0.00    -0.506 OA
ATOM     41  HH  TYR A   1       5.924  -6.316 -24.564  0.00  0.00    +0.292 HD
ENDBRANCH  37  40
ENDBRANCH  33  34
ENDBRANCH  30  33
ENDBRANCH  26  30
ENDBRANCH  25  27
BRANCH  25  42
ATOM     42  CB  SER A   2      15.159  -3.139 -18.893  0.00  0.00    +0.166 C 
BRANCH  42  43
ATOM     43  OG  SER A   2      16.584  -3.081 -18.838  0.00  0.00    -0.380 OA
ATOM     44  H   SER A   2      16.964  -3.673 -19.535  0.00  0.00    +0.211 HD
ENDBRANCH  42  43
ENDBRANCH  25  42
ENDBRANCH   1  25
TORSDOF 18
REMARK  Name = ../refined-set-2016/3neo/3neo_pocket.pdb
REMARK  199 active torsions:
REMARK  status: ('A' for Active; 'I' for Inactive)
REMARK    1  A    between atoms: _1  and  _3
REMARK    2  A    between atoms: _3  and  _4
REMARK    3  A    between atoms: _3  and  _6
REMARK    4  A    between atoms: _6  and  _7
REMARK    5  A    between atoms: _7  and  _8
REMARK    6  A    between atoms: _10  and  _12
REMARK    7  A    between atoms: _12  and  _13
REMARK    8  A    between atoms: _12  and  _15
REMARK    9  A    between atoms: _18  and  _20
REMARK   10  A    between atoms: _20  and  _21
REMARK   11  A    between atoms: _20  and  _23
REMARK   12  A    between atoms: _23  and  _24
REMARK   13  A    between atoms: _24  and  _25
REMARK   14  A    between atoms: _25  and  _26
REMARK   15  A    between atoms: _26  and  _27
REMARK   16  A    between atoms: _31  and  _33
REMARK   17  A    between atoms: _33  and  _34
REMARK   18  A    between atoms: _33  and  _36
REMARK   19  A    between atoms: _39  and  _41
REMARK   20  A    between atoms: _41  and  _42
REMARK   21  A    between atoms: _41  and  _44
REMARK   22  A    between atoms: _44  and  _45
REMARK   23  A    between atoms: _48  and  _50
REMARK   24  A    between atoms: _50  and  _51
REMARK   25  A    between atoms: _50  and  _53
REMARK   26  A    between atoms: _53  and  _54
REMARK   27  A    between atoms: _57  and  _59
REMARK   28  A    between atoms: _59  and  _60
REMARK   29  A    between atoms: _63  and  _65
REMARK   30  A    between atoms: _65  and  _66
REMARK   31  A    between atoms: _65  and  _68
REMARK   32  A    between atoms: _68  and  _69
REMARK   33  A    between atoms: _71  and  _73
REMARK   34  A    between atoms: _73  and  _74
REMARK   35  A    between atoms: _76  and  _78
REMARK   36  A    between atoms: _78  and  _79
REMARK   37  A    between atoms: _78  and  _81
REMARK   38  A    between atoms: _81  and  _82
REMARK   39  A    between atoms: _82  and  _83
REMARK   40  A    between atoms: _86  and  _88
REMARK   41  A    between atoms: _88  and  _89
REMARK   42  A    between atoms: _88  and  _91
REMARK   43  A    between atoms: _91  and  _92
REMARK   44  A    between atoms: _95  and  _97
REMARK   45  A    between atoms: _97  and  _98
REMARK   46  A    between atoms: _97  and  _100
REMARK   47  A    between atoms: _100  and  _101
REMARK   48  A    between atoms: _106  and  _108
REMARK   49  A    between atoms: _108  and  _109
REMARK   50  A    between atoms: _108  and  _111
REMARK   51  A    between atoms: _111  and  _112
REMARK   52  A    between atoms: _115  and  _117
REMARK   53  A    between atoms: _117  and  _118
REMARK   54  A    between atoms: _117  and  _120
REMARK   55  A    between atoms: _120  and  _121
REMARK   56  A    between atoms: _124  and  _126
REMARK   57  A    between atoms: _126  and  _127
REMARK   58  A    between atoms: _130  and  _132
REMARK   59  A    between atoms: _132  and  _133
REMARK   60  A    between atoms: _136  and  _138
REMARK   61  A    between atoms: _138  and  _139
REMARK   62  A    between atoms: _138  and  _141
REMARK   63  A    between atoms: _141  and  _142
REMARK   64  A    between atoms: _145  and  _147
REMARK   65  A    between atoms: _147  and  _148
REMARK   66  A    between atoms: _147  and  _150
REMARK   67  A    between atoms: _150  and  _151
REMARK   68  A    between atoms: _154  and  _156
REMARK   69  A    between atoms: _156  and  _157
REMARK   70  A    between atoms: _156  and  _159
REMARK   71  A    between atoms: _159  and  _160
REMARK   72  A    between atoms: _165  and  _166
REMARK   73  A    between atoms: _168  and  _170
REMARK   74  A    between atoms: _170  and  _171
REMARK   75  A    between atoms: _170  and  _173
REMARK   76  A    between atoms: _173  and  _174
REMARK   77  A    between atoms: _176  and  _178
REMARK   78  A    between atoms: _178  and  _179
REMARK   79  A    between atoms: _178  and  _181
REMARK   80  A    between atoms: _181  and  _182
REMARK   81  A    between atoms: _185  and  _187
REMARK   82  A    between atoms: _187  and  _188
REMARK   83  A    between atoms: _187  and  _190
REMARK   84  A    between atoms: _190  and  _191
REMARK   85  A    between atoms: _194  and  _196
REMARK   86  A    between atoms: _196  and  _197
REMARK   87  A    between atoms: _200  and  _202
REMARK   88  A    between atoms: _202  and  _203
REMARK   89  A    between atoms: _202  and  _205
REMARK   90  A    between atoms: _208  and  _210
REMARK   91  A    between atoms: _210  and  _211
REMARK   92  A    between atoms: _210  and  _213
REMARK   93  A    between atoms: _213  and  _214
REMARK   94  A    between atoms: _216  and  _218
REMARK   95  A    between atoms: _218  and  _219
REMARK   96  A    between atoms: _218  and  _221
REMARK   97  A    between atoms: _221  and  _222
REMARK   98  A    between atoms: _227  and  _228
REMARK   99  A    between atoms: _230  and  _232
REMARK  100  A    between atoms: _232  and  _233
REMARK  101  A    between atoms: _232  and  _235
REMARK  102  A    between atoms: _235  and  _236
REMARK  103  A    between atoms: _238  and  _240
REMARK  104  A    between atoms: _240  and  _241
REMARK  105  A    between atoms: _240  and  _243
REMARK  106  A    between atoms: _243  and  _244
REMARK  107  A    between atoms: _244  and  _245
REMARK  108  A    between atoms: _247  and  _249
REMARK  109  A    between atoms: _249  and  _250
REMARK  110  A    between atoms: _249  and  _252
REMARK  111  A    between atoms: _255  and  _257
REMARK  112  A    between atoms: _257  and  _258
REMARK  113  A    between atoms: _257  and  _260
REMARK  114  A    between atoms: _260  and  _261
REMARK  115  A    between atoms: _261  and  _262
REMARK  116  A    between atoms: _262  and  _263
REMARK  117  A    between atoms: _263  and  _264
REMARK  118  A    between atoms: _268  and  _270
REMARK  119  A    between atoms: _270  and  _271
REMARK  120  A    between atoms: _270  and  _273
REMARK  121  A    between atoms: _276  and  _278
REMARK  122  A    between atoms: _278  and  _279
REMARK  123  A    between atoms: _278  and  _281
REMARK  124  A    between atoms: _281  and  _282
REMARK  125  A    between atoms: _285  and  _287
REMARK  126  A    between atoms: _287  and  _288
REMARK  127  A    between atoms: _287  and  _290
REMARK  128  A    between atoms: _290  and  _291
REMARK  129  A    between atoms: _294  and  _296
REMARK  130  A    between atoms: _296  and  _297
REMARK  131  A    between atoms: _296  and  _299
REMARK  132  A    between atoms: _299  and  _300
REMARK  133  A    between atoms: _302  and  _304
REMARK  134  A    between atoms: _304  and  _305
REMARK  135  A    between atoms: _307  and  _309
REMARK  136  A    between atoms: _309  and  _310
REMARK  137  A    between atoms: _309  and  _312
REMARK  138  A    between atoms: _312  and  _313
REMARK  139  A    between atoms: _313  and  _314
REMARK  140  A    between atoms: _317  and  _319
REMARK  141  A    between atoms: _319  and  _320
REMARK  142  A    between atoms: _319  and  _322
REMARK  143  A    between atoms: _322  and  _323
REMARK  144  A    between atoms: _326  and  _328
REMARK  145  A    between atoms: _328  and  _329
REMARK  146  A    between atoms: _328  and  _331
REMARK  147  A    between atoms: _331  and  _332
REMARK  148  A    between atoms: _335  and  _337
REMARK  149  A    between atoms: _337  and  _338
REMARK  150  A    between atoms: _341  and  _343
REMARK  151  A    between atoms: _343  and  _344
REMARK  152  A    between atoms: _347  and  _349
REMARK  153  A    between atoms: _349  and  _350
REMARK  154  A    between atoms: _349  and  _352
REMARK  155  A    between atoms: _352  and  _353
REMARK  156  A    between atoms: _356  and  _358
REMARK  157  A    between atoms: _358  and  _359
REMARK  158  A    between atoms: _358  and  _361
REMARK  159  A    between atoms: _361  and  _362
REMARK  160  A    between atoms: _365  and  _367
REMARK  161  A    between atoms: _367  and  _368
REMARK  162  A    between atoms: _367  and  _370
REMARK  163  A    between atoms: _370  and  _371
REMARK  164  A    between atoms: _376  and  _377
REMARK  165  A    between atoms: _379  and  _381
REMARK  166  A    between atoms: _381  and  _382
REMARK  167  A    between atoms: _381  and  _384
REMARK  168  A    between atoms: _384  and  _385
REMARK  169  A    between atoms: _387  and  _389
REMARK  170  A    between atoms: _389  and  _390
REMARK  171  A    between atoms: _389  and  _392
REMARK  172  A    between atoms: _392  and  _393
REMARK  173  A    between atoms: _396  and  _398
REMARK  174  A    between atoms: _398  and  _399
REMARK  175  A    between atoms: _398  and  _401
REMARK  176  A    between atoms: _401  and  _402
REMARK  177  A    between atoms: _405  and  _407
REMARK  178  A    between atoms: _407  and  _408
REMARK  179  A    between atoms: _411  and  _413
REMARK  180  A    between atoms: _413  and  _414
REMARK  181  A    between atoms: _413  and  _416
REMARK  182  A    between atoms: _419  and  _421
REMARK  183  A    between atoms: _421  and  _422
REMARK  184  A    between atoms: _421  and  _424
REMARK  185  A    between atoms: _424  and  _425
REMARK  186  A    between atoms: _430  and  _431
REMARK  187  A    between atoms: _433  and  _435
REMARK  188  A    between atoms: _435  and  _436
REMARK  189  A    between atoms: _435  and  _438
REMARK  190  A    between atoms: _438  and  _439
REMARK  191  A    between atoms: _441  and  _443
REMARK  192  A    between atoms: _443  and  _444
REMARK  193  A    between atoms: _443  and  _446
REMARK  194  A    between atoms: _446  and  _447
REMARK  195  A    between atoms: _452  and  _453
REMARK  196  A    between atoms: _455  and  _457
REMARK  197  A    between atoms: _457  and  _458
REMARK  198  A    between atoms: _457  and  _460
REMARK  199  A    between atoms: _460  and  _461
REMARK                            x       y       z     vdW  Elec       q    Type
REMARK                         _______ _______ _______ _____ _____    ______ ____
ROOT
ATOM      1  O   HOH     1      30.103   5.613 -32.367  0.00  0.00    +0.000 OA
ENDROOT
TORSDOF 0
REMARK  Name = ../refined-set-2016/3neo/3neo_pocket.pdb
REMARK  199 active torsions:
REMARK  status: ('A' for Active; 'I' for Inactive)
REMARK    1  A    between atoms: _1  and  _3
REMARK    2  A    between atoms: _3  and  _4
REMARK    3  A    between atoms: _3  and  _6
REMARK    4  A    between atoms: _6  and  _7
REMARK    5  A    between atoms: _7  and  _8
REMARK    6  A    between atoms: _10  and  _12
REMARK    7  A    between atoms: _12  and  _13
REMARK    8  A    between atoms: _12  and  _15
REMARK    9  A    between atoms: _18  and  _20
REMARK   10  A    between atoms: _20  and  _21
REMARK   11  A    between atoms: _20  and  _23
REMARK   12  A    between atoms: _23  and  _24
REMARK   13  A    between atoms: _24  and  _25
REMARK   14  A    between atoms: _25  and  _26
REMARK   15  A    between atoms: _26  and  _27
REMARK   16  A    between atoms: _31  and  _33
REMARK   17  A    between atoms: _33  and  _34
REMARK   18  A    between atoms: _33  and  _36
REMARK   19  A    between atoms: _39  and  _41
REMARK   20  A    between atoms: _41  and  _42
REMARK   21  A    between atoms: _41  and  _44
REMARK   22  A    between atoms: _44  and  _45
REMARK   23  A    between atoms: _48  and  _50
REMARK   24  A    between atoms: _50  and  _51
REMARK   25  A    between atoms: _50  and  _53
REMARK   26  A    between atoms: _53  and  _54
REMARK   27  A    between atoms: _57  and  _59
REMARK   28  A    between atoms: _59  and  _60
REMARK   29  A    between atoms: _63  and  _65
REMARK   30  A    between atoms: _65  and  _66
REMARK   31  A    between atoms: _65  and  _68
REMARK   32  A    between atoms: _68  and  _69
REMARK   33  A    between atoms: _71  and  _73
REMARK   34  A    between atoms: _73  and  _74
REMARK   35  A    between atoms: _76  and  _78
REMARK   36  A    between atoms: _78  and  _79
REMARK   37  A    between atoms: _78  and  _81
REMARK   38  A    between atoms: _81  and  _82
REMARK   39  A    between atoms: _82  and  _83
REMARK   40  A    between atoms: _86  and  _88
REMARK   41  A    between atoms: _88  and  _89
REMARK   42  A    between atoms: _88  and  _91
REMARK   43  A    between atoms: _91  and  _92
REMARK   44  A    between atoms: _95  and  _97
REMARK   45  A    between atoms: _97  and  _98
REMARK   46  A    between atoms: _97  and  _100
REMARK   47  A    between atoms: _100  and  _101
REMARK   48  A    between atoms: _106  and  _108
REMARK   49  A    between atoms: _108  and  _109
REMARK   50  A    between atoms: _108  and  _111
REMARK   51  A    between atoms: _111  and  _112
REMARK   52  A    between atoms: _115  and  _117
REMARK   53  A    between atoms: _117  and  _118
REMARK   54  A    between atoms: _117  and  _120
REMARK   55  A    between atoms: _120  and  _121
REMARK   56  A    between atoms: _124  and  _126
REMARK   57  A    between atoms: _126  and  _127
REMARK   58  A    between atoms: _130  and  _132
REMARK   59  A    between atoms: _132  and  _133
REMARK   60  A    between atoms: _136  and  _138
REMARK   61  A    between atoms: _138  and  _139
REMARK   62  A    between atoms: _138  and  _141
REMARK   63  A    between atoms: _141  and  _142
REMARK   64  A    between atoms: _145  and  _147
REMARK   65  A    between atoms: _147  and  _148
REMARK   66  A    between atoms: _147  and  _150
REMARK   67  A    between atoms: _150  and  _151
REMARK   68  A    between atoms: _154  and  _156
REMARK   69  A    between atoms: _156  and  _157
REMARK   70  A    between atoms: _156  and  _159
REMARK   71  A    between atoms: _159  and  _160
REMARK   72  A    between atoms: _165  and  _166
REMARK   73  A    between atoms: _168  and  _170
REMARK   74  A    between atoms: _170  and  _171
REMARK   75  A    between atoms: _170  and  _173
REMARK   76  A    between atoms: _173  and  _174
REMARK   77  A    between atoms: _176  and  _178
REMARK   78  A    between atoms: _178  and  _179
REMARK   79  A    between atoms: _178  and  _181
REMARK   80  A    between atoms: _181  and  _182
REMARK   81  A    between atoms: _185  and  _187
REMARK   82  A    between atoms: _187  and  _188
REMARK   83  A    between atoms: _187  and  _190
REMARK   84  A    between atoms: _190  and  _191
REMARK   85  A    between atoms: _194  and  _196
REMARK   86  A    between atoms: _196  and  _197
REMARK   87  A    between atoms: _200  and  _202
REMARK   88  A    between atoms: _202  and  _203
REMARK   89  A    between atoms: _202  and  _205
REMARK   90  A    between atoms: _208  and  _210
REMARK   91  A    between atoms: _210  and  _211
REMARK   92  A    between atoms: _210  and  _213
REMARK   93  A    between atoms: _213  and  _214
REMARK   94  A    between atoms: _216  and  _218
REMARK   95  A    between atoms: _218  and  _219
REMARK   96  A    between atoms: _218  and  _221
REMARK   97  A    between atoms: _221  and  _222
REMARK   98  A    between atoms: _227  and  _228
REMARK   99  A    between atoms: _230  and  _232
REMARK  100  A    between atoms: _232  and  _233
REMARK  101  A    between atoms: _232  and  _235
REMARK  102  A    between atoms: _235  and  _236
REMARK  103  A    between atoms: _238  and  _240
REMARK  104  A    between atoms: _240  and  _241
REMARK  105  A    between atoms: _240  and  _243
REMARK  106  A    between atoms: _243  and  _244
REMARK  107  A    between atoms: _244  and  _245
REMARK  108  A    between atoms: _247  and  _249
REMARK  109  A    between atoms: _249  and  _250
REMARK  110  A    between atoms: _249  and  _252
REMARK  111  A    between atoms: _255  and  _257
REMARK  112  A    between atoms: _257  and  _258
REMARK  113  A    between atoms: _257  and  _260
REMARK  114  A    between atoms: _260  and  _261
REMARK  115  A    between atoms: _261  and  _262
REMARK  116  A    between atoms: _262  and  _263
REMARK  117  A    between atoms: _263  and  _264
REMARK  118  A    between atoms: _268  and  _270
REMARK  119  A    between atoms: _270  and  _271
REMARK  120  A    between atoms: _270  and  _273
REMARK  121  A    between atoms: _276  and  _278
REMARK  122  A    between atoms: _278  and  _279
REMARK  123  A    between atoms: _278  and  _281
REMARK  124  A    between atoms: _281  and  _282
REMARK  125  A    between atoms: _285  and  _287
REMARK  126  A    between atoms: _287  and  _288
REMARK  127  A    between atoms: _287  and  _290
REMARK  128  A    between atoms: _290  and  _291
REMARK  129  A    between atoms: _294  and  _296
REMARK  130  A    between atoms: _296  and  _297
REMARK  131  A    between atoms: _296  and  _299
REMARK  132  A    between atoms: _299  and  _300
REMARK  133  A    between atoms: _302  and  _304
REMARK  134  A    between atoms: _304  and  _305
REMARK  135  A    between atoms: _307  and  _309
REMARK  136  A    between atoms: _309  and  _310
REMARK  137  A    between atoms: _309  and  _312
REMARK  138  A    between atoms: _312  and  _313
REMARK  139  A    between atoms: _313  and  _314
REMARK  140  A    between atoms: _317  and  _319
REMARK  141  A    between atoms: _319  and  _320
REMARK  142  A    between atoms: _319  and  _322
REMARK  143  A    between atoms: _322  and  _323
REMARK  144  A    between atoms: _326  and  _328
REMARK  145  A    between atoms: _328  and  _329
REMARK  146  A    between atoms: _328  and  _331
REMARK  147  A    between atoms: _331  and  _332
REMARK  148  A    between atoms: _335  and  _337
REMARK  149  A    between atoms: _337  and  _338
REMARK  150  A    between atoms: _341  and  _343
REMARK  151  A    between atoms: _343  and  _344
REMARK  152  A    between atoms: _347  and  _349
REMARK  153  A    between atoms: _349  and  _350
REMARK  154  A    between atoms: _349  and  _352
REMARK  155  A    between atoms: _352  and  _353
REMARK  156  A    between atoms: _356  and  _358
REMARK  157  A    between atoms: _358  and  _359
REMARK  158  A    between atoms: _358  and  _361
REMARK  159  A    between atoms: _361  and  _362
REMARK  160  A    between atoms: _365  and  _367
REMARK  161  A    between atoms: _367  and  _368
REMARK  162  A    between atoms: _367  and  _370
REMARK  163  A    between atoms: _370  and  _371
REMARK  164  A    between atoms: _376  and  _377
REMARK  165  A    between atoms: _379  and  _381
REMARK  166  A    between atoms: _381  and  _382
REMARK  167  A    between atoms: _381  and  _384
REMARK  168  A    between atoms: _384  and  _385
REMARK  169  A    between atoms: _387  and  _389
REMARK  170  A    between atoms: _389  and  _390
REMARK  171  A    between atoms: _389  and  _392
REMARK  172  A    between atoms: _392  and  _393
REMARK  173  A    between atoms: _396  and  _398
REMARK  174  A    between atoms: _398  and  _399
REMARK  175  A    between atoms: _398  and  _401
REMARK  176  A    between atoms: _401  and  _402
REMARK  177  A    between atoms: _405  and  _407
REMARK  178  A    between atoms: _407  and  _408
REMARK  179  A    between atoms: _411  and  _413
REMARK  180  A    between atoms: _413  and  _414
REMARK  181  A    between atoms: _413  and  _416
REMARK  182  A    between atoms: _419  and  _421
REMARK  183  A    between atoms: _421  and  _422
REMARK  184  A    between atoms: _421  and  _424
REMARK  185  A    between atoms: _424  and  _425
REMARK  186  A    between atoms: _430  and  _431
REMARK  187  A    between atoms: _433  and  _435
REMARK  188  A    between atoms: _435  and  _436
REMARK  189  A    between atoms: _435  and  _438
REMARK  190  A    between atoms: _438  and  _439
REMARK  191  A    between atoms: _441  and  _443
REMARK  192  A    between atoms: _443  and  _444
REMARK  193  A    between atoms: _443  and  _446
REMARK  194  A    between atoms: _446  and  _447
REMARK  195  A    between atoms: _452  and  _453
REMARK  196  A    between atoms: _455  and  _457
REMARK  197  A    between atoms: _457  and  _458
REMARK  198  A    between atoms: _457  and  _460
REMARK  199  A    between atoms: _460  and  _461
REMARK                            x       y       z     vdW  Elec       q    Type
REMARK                         _______ _______ _______ _____ _____    ______ ____
ROOT
ATOM      1  O   HOH     1      23.628  -0.950 -33.465  0.00  0.00    +0.000 OA
ENDROOT
TORSDOF 0
REMARK  Name = ../refined-set-2016/3neo/3neo_pocket.pdb
REMARK  199 active torsions:
REMARK  status: ('A' for Active; 'I' for Inactive)
REMARK    1  A    between atoms: _1  and  _3
REMARK    2  A    between atoms: _3  and  _4
REMARK    3  A    between atoms: _3  and  _6
REMARK    4  A    between atoms: _6  and  _7
REMARK    5  A    between atoms: _7  and  _8
REMARK    6  A    between atoms: _10  and  _12
REMARK    7  A    between atoms: _12  and  _13
REMARK    8  A    between atoms: _12  and  _15
REMARK    9  A    between atoms: _18  and  _20
REMARK   10  A    between atoms: _20  and  _21
REMARK   11  A    between atoms: _20  and  _23
REMARK   12  A    between atoms: _23  and  _24
REMARK   13  A    between atoms: _24  and  _25
REMARK   14  A    between atoms: _25  and  _26
REMARK   15  A    between atoms: _26  and  _27
REMARK   16  A    between atoms: _31  and  _33
REMARK   17  A    between atoms: _33  and  _34
REMARK   18  A    between atoms: _33  and  _36
REMARK   19  A    between atoms: _39  and  _41
REMARK   20  A    between atoms: _41  and  _42
REMARK   21  A    between atoms: _41  and  _44
REMARK   22  A    between atoms: _44  and  _45
REMARK   23  A    between atoms: _48  and  _50
REMARK   24  A    between atoms: _50  and  _51
REMARK   25  A    between atoms: _50  and  _53
REMARK   26  A    between atoms: _53  and  _54
REMARK   27  A    between atoms: _57  and  _59
REMARK   28  A    between atoms: _59  and  _60
REMARK   29  A    between atoms: _63  and  _65
REMARK   30  A    between atoms: _65  and  _66
REMARK   31  A    between atoms: _65  and  _68
REMARK   32  A    between atoms: _68  and  _69
REMARK   33  A    between atoms: _71  and  _73
REMARK   34  A    between atoms: _73  and  _74
REMARK   35  A    between atoms: _76  and  _78
REMARK   36  A    between atoms: _78  and  _79
REMARK   37  A    between atoms: _78  and  _81
REMARK   38  A    between atoms: _81  and  _82
REMARK   39  A    between atoms: _82  and  _83
REMARK   40  A    between atoms: _86  and  _88
REMARK   41  A    between atoms: _88  and  _89
REMARK   42  A    between atoms: _88  and  _91
REMARK   43  A    between atoms: _91  and  _92
REMARK   44  A    between atoms: _95  and  _97
REMARK   45  A    between atoms: _97  and  _98
REMARK   46  A    between atoms: _97  and  _100
REMARK   47  A    between atoms: _100  and  _101
REMARK   48  A    between atoms: _106  and  _108
REMARK   49  A    between atoms: _108  and  _109
REMARK   50  A    between atoms: _108  and  _111
REMARK   51  A    between atoms: _111  and  _112
REMARK   52  A    between atoms: _115  and  _117
REMARK   53  A    between atoms: _117  and  _118
REMARK   54  A    between atoms: _117  and  _120
REMARK   55  A    between atoms: _120  and  _121
REMARK   56  A    between atoms: _124  and  _126
REMARK   57  A    between atoms: _126  and  _127
REMARK   58  A    between atoms: _130  and  _132
REMARK   59  A    between atoms: _132  and  _133
REMARK   60  A    between atoms: _136  and  _138
REMARK   61  A    between atoms: _138  and  _139
REMARK   62  A    between atoms: _138  and  _141
REMARK   63  A    between atoms: _141  and  _142
REMARK   64  A    between atoms: _145  and  _147
REMARK   65  A    between atoms: _147  and  _148
REMARK   66  A    between atoms: _147  and  _150
REMARK   67  A    between atoms: _150  and  _151
REMARK   68  A    between atoms: _154  and  _156
REMARK   69  A    between atoms: _156  and  _157
REMARK   70  A    between atoms: _156  and  _159
REMARK   71  A    between atoms: _159  and  _160
REMARK   72  A    between atoms: _165  and  _166
REMARK   73  A    between atoms: _168  and  _170
REMARK   74  A    between atoms: _170  and  _171
REMARK   75  A    between atoms: _170  and  _173
REMARK   76  A    between atoms: _173  and  _174
REMARK   77  A    between atoms: _176  and  _178
REMARK   78  A    between atoms: _178  and  _179
REMARK   79  A    between atoms: _178  and  _181
REMARK   80  A    between atoms: _181  and  _182
REMARK   81  A    between atoms: _185  and  _187
REMARK   82  A    between atoms: _187  and  _188
REMARK   83  A    between atoms: _187  and  _190
REMARK   84  A    between atoms: _190  and  _191
REMARK   85  A    between atoms: _194  and  _196
REMARK   86  A    between atoms: _196  and  _197
REMARK   87  A    between atoms: _200  and  _202
REMARK   88  A    between atoms: _202  and  _203
REMARK   89  A    between atoms: _202  and  _205
REMARK   90  A    between atoms: _208  and  _210
REMARK   91  A    between atoms: _210  and  _211
REMARK   92  A    between atoms: _210  and  _213
REMARK   93  A    between atoms: _213  and  _214
REMARK   94  A    between atoms: _216  and  _218
REMARK   95  A    between atoms: _218  and  _219
REMARK   96  A    between atoms: _218  and  _221
REMARK   97  A    between atoms: _221  and  _222
REMARK   98  A    between atoms: _227  and  _228
REMARK   99  A    between atoms: _230  and  _232
REMARK  100  A    between atoms: _232  and  _233
REMARK  101  A    between atoms: _232  and  _235
REMARK  102  A    between atoms: _235  and  _236
REMARK  103  A    between atoms: _238  and  _240
REMARK  104  A    between atoms: _240  and  _241
REMARK  105  A    between atoms: _240  and  _243
REMARK  106  A    between atoms: _243  and  _244
REMARK  107  A    between atoms: _244  and  _245
REMARK  108  A    between atoms: _247  and  _249
REMARK  109  A    between atoms: _249  and  _250
REMARK  110  A    between atoms: _249  and  _252
REMARK  111  A    between atoms: _255  and  _257
REMARK  112  A    between atoms: _257  and  _258
REMARK  113  A    between atoms: _257  and  _260
REMARK  114  A    between atoms: _260  and  _261
REMARK  115  A    between atoms: _261  and  _262
REMARK  116  A    between atoms: _262  and  _263
REMARK  117  A    between atoms: _263  and  _264
REMARK  118  A    between atoms: _268  and  _270
REMARK  119  A    between atoms: _270  and  _271
REMARK  120  A    between atoms: _270  and  _273
REMARK  121  A    between atoms: _276  and  _278
REMARK  122  A    between atoms: _278  and  _279
REMARK  123  A    between atoms: _278  and  _281
REMARK  124  A    between atoms: _281  and  _282
REMARK  125  A    between atoms: _285  and  _287
REMARK  126  A    between atoms: _287  and  _288
REMARK  127  A    between atoms: _287  and  _290
REMARK  128  A    between atoms: _290  and  _291
REMARK  129  A    between atoms: _294  and  _296
REMARK  130  A    between atoms: _296  and  _297
REMARK  131  A    between atoms: _296  and  _299
REMARK  132  A    between atoms: _299  and  _300
REMARK  133  A    between atoms: _302  and  _304
REMARK  134  A    between atoms: _304  and  _305
REMARK  135  A    between atoms: _307  and  _309
REMARK  136  A    between atoms: _309  and  _310
REMARK  137  A    between atoms: _309  and  _312
REMARK  138  A    between atoms: _312  and  _313
REMARK  139  A    between atoms: _313  and  _314
REMARK  140  A    between atoms: _317  and  _319
REMARK  141  A    between atoms: _319  and  _320
REMARK  142  A    between atoms: _319  and  _322
REMARK  143  A    between atoms: _322  and  _323
REMARK  144  A    between atoms: _326  and  _328
REMARK  145  A    between atoms: _328  and  _329
REMARK  146  A    between atoms: _328  and  _331
REMARK  147  A    between atoms: _331  and  _332
REMARK  148  A    between atoms: _335  and  _337
REMARK  149  A    between atoms: _337  and  _338
REMARK  150  A    between atoms: _341  and  _343
REMARK  151  A    between atoms: _343  and  _344
REMARK  152  A    between atoms: _347  and  _349
REMARK  153  A    between atoms: _349  and  _350
REMARK  154  A    between atoms: _349  and  _352
REMARK  155  A    between atoms: _352  and  _353
REMARK  156  A    between atoms: _356  and  _358
REMARK  157  A    between atoms: _358  and  _359
REMARK  158  A    between atoms: _358  and  _361
REMARK  159  A    between atoms: _361  and  _362
REMARK  160  A    between atoms: _365  and  _367
REMARK  161  A    between atoms: _367  and  _368
REMARK  162  A    between atoms: _367  and  _370
REMARK  163  A    between atoms: _370  and  _371
REMARK  164  A    between atoms: _376  and  _377
REMARK  165  A    between atoms: _379  and  _381
REMARK  166  A    between atoms: _381  and  _382
REMARK  167  A    between atoms: _381  and  _384
REMARK  168  A    between atoms: _384  and  _385
REMARK  169  A    between atoms: _387  and  _389
REMARK  170  A    between atoms: _389  and  _390
REMARK  171  A    between atoms: _389  and  _392
REMARK  172  A    between atoms: _392  and  _393
REMARK  173  A    between atoms: _396  and  _398
REMARK  174  A    between atoms: _398  and  _399
REMARK  175  A    between atoms: _398  and  _401
REMARK  176  A    between atoms: _401  and  _402
REMARK  177  A    between atoms: _405  and  _407
REMARK  178  A    between atoms: _407  and  _408
REMARK  179  A    between atoms: _411  and  _413
REMARK  180  A    between atoms: _413  and  _414
REMARK  181  A    between atoms: _413  and  _416
REMARK  182  A    between atoms: _419  and  _421
REMARK  183  A    between atoms: _421  and  _422
REMARK  184  A    between atoms: _421  and  _424
REMARK  185  A    between atoms: _424  and  _425
REMARK  186  A    between atoms: _430  and  _431
REMARK  187  A    between atoms: _433  and  _435
REMARK  188  A    between atoms: _435  and  _436
REMARK  189  A    between atoms: _435  and  _438
REMARK  190  A    between atoms: _438  and  _439
REMARK  191  A    between atoms: _441  and  _443
REMARK  192  A    between atoms: _443  and  _444
REMARK  193  A    between atoms: _443  and  _446
REMARK  194  A    between atoms: _446  and  _447
REMARK  195  A    between atoms: _452  and  _453
REMARK  196  A    between atoms: _455  and  _457
REMARK  197  A    between atoms: _457  and  _458
REMARK  198  A    between atoms: _457  and  _460
REMARK  199  A    between atoms: _460  and  _461
REMARK                            x       y       z     vdW  Elec       q    Type
REMARK                         _______ _______ _______ _____ _____    ______ ____
ROOT
ATOM      1  O   HOH     1      22.417   3.016 -21.495  0.00  0.00    +0.000 OA
ENDROOT
TORSDOF 0
REMARK  Name = ../refined-set-2016/3neo/3neo_pocket.pdb
REMARK  199 active torsions:
REMARK  status: ('A' for Active; 'I' for Inactive)
REMARK    1  A    between atoms: _1  and  _3
REMARK    2  A    between atoms: _3  and  _4
REMARK    3  A    between atoms: _3  and  _6
REMARK    4  A    between atoms: _6  and  _7
REMARK    5  A    between atoms: _7  and  _8
REMARK    6  A    between atoms: _10  and  _12
REMARK    7  A    between atoms: _12  and  _13
REMARK    8  A    between atoms: _12  and  _15
REMARK    9  A    between atoms: _18  and  _20
REMARK   10  A    between atoms: _20  and  _21
REMARK   11  A    between atoms: _20  and  _23
REMARK   12  A    between atoms: _23  and  _24
REMARK   13  A    between atoms: _24  and  _25
REMARK   14  A    between atoms: _25  and  _26
REMARK   15  A    between atoms: _26  and  _27
REMARK   16  A    between atoms: _31  and  _33
REMARK   17  A    between atoms: _33  and  _34
REMARK   18  A    between atoms: _33  and  _36
REMARK   19  A    between atoms: _39  and  _41
REMARK   20  A    between atoms: _41  and  _42
REMARK   21  A    between atoms: _41  and  _44
REMARK   22  A    between atoms: _44  and  _45
REMARK   23  A    between atoms: _48  and  _50
REMARK   24  A    between atoms: _50  and  _51
REMARK   25  A    between atoms: _50  and  _53
REMARK   26  A    between atoms: _53  and  _54
REMARK   27  A    between atoms: _57  and  _59
REMARK   28  A    between atoms: _59  and  _60
REMARK   29  A    between atoms: _63  and  _65
REMARK   30  A    between atoms: _65  and  _66
REMARK   31  A    between atoms: _65  and  _68
REMARK   32  A    between atoms: _68  and  _69
REMARK   33  A    between atoms: _71  and  _73
REMARK   34  A    between atoms: _73  and  _74
REMARK   35  A    between atoms: _76  and  _78
REMARK   36  A    between atoms: _78  and  _79
REMARK   37  A    between atoms: _78  and  _81
REMARK   38  A    between atoms: _81  and  _82
REMARK   39  A    between atoms: _82  and  _83
REMARK   40  A    between atoms: _86  and  _88
REMARK   41  A    between atoms: _88  and  _89
REMARK   42  A    between atoms: _88  and  _91
REMARK   43  A    between atoms: _91  and  _92
REMARK   44  A    between atoms: _95  and  _97
REMARK   45  A    between atoms: _97  and  _98
REMARK   46  A    between atoms: _97  and  _100
REMARK   47  A    between atoms: _100  and  _101
REMARK   48  A    between atoms: _106  and  _108
REMARK   49  A    between atoms: _108  and  _109
REMARK   50  A    between atoms: _108  and  _111
REMARK   51  A    between atoms: _111  and  _112
REMARK   52  A    between atoms: _115  and  _117
REMARK   53  A    between atoms: _117  and  _118
REMARK   54  A    between atoms: _117  and  _120
REMARK   55  A    between atoms: _120  and  _121
REMARK   56  A    between atoms: _124  and  _126
REMARK   57  A    between atoms: _126  and  _127
REMARK   58  A    between atoms: _130  and  _132
REMARK   59  A    between atoms: _132  and  _133
REMARK   60  A    between atoms: _136  and  _138
REMARK   61  A    between atoms: _138  and  _139
REMARK   62  A    between atoms: _138  and  _141
REMARK   63  A    between atoms: _141  and  _142
REMARK   64  A    between atoms: _145  and  _147
REMARK   65  A    between atoms: _147  and  _148
REMARK   66  A    between atoms: _147  and  _150
REMARK   67  A    between atoms: _150  and  _151
REMARK   68  A    between atoms: _154  and  _156
REMARK   69  A    between atoms: _156  and  _157
REMARK   70  A    between atoms: _156  and  _159
REMARK   71  A    between atoms: _159  and  _160
REMARK   72  A    between atoms: _165  and  _166
REMARK   73  A    between atoms: _168  and  _170
REMARK   74  A    between atoms: _170  and  _171
REMARK   75  A    between atoms: _170  and  _173
REMARK   76  A    between atoms: _173  and  _174
REMARK   77  A    between atoms: _176  and  _178
REMARK   78  A    between atoms: _178  and  _179
REMARK   79  A    between atoms: _178  and  _181
REMARK   80  A    between atoms: _181  and  _182
REMARK   81  A    between atoms: _185  and  _187
REMARK   82  A    between atoms: _187  and  _188
REMARK   83  A    between atoms: _187  and  _190
REMARK   84  A    between atoms: _190  and  _191
REMARK   85  A    between atoms: _194  and  _196
REMARK   86  A    between atoms: _196  and  _197
REMARK   87  A    between atoms: _200  and  _202
REMARK   88  A    between atoms: _202  and  _203
REMARK   89  A    between atoms: _202  and  _205
REMARK   90  A    between atoms: _208  and  _210
REMARK   91  A    between atoms: _210  and  _211
REMARK   92  A    between atoms: _210  and  _213
REMARK   93  A    between atoms: _213  and  _214
REMARK   94  A    between atoms: _216  and  _218
REMARK   95  A    between atoms: _218  and  _219
REMARK   96  A    between atoms: _218  and  _221
REMARK   97  A    between atoms: _221  and  _222
REMARK   98  A    between atoms: _227  and  _228
REMARK   99  A    between atoms: _230  and  _232
REMARK  100  A    between atoms: _232  and  _233
REMARK  101  A    between atoms: _232  and  _235
REMARK  102  A    between atoms: _235  and  _236
REMARK  103  A    between atoms: _238  and  _240
REMARK  104  A    between atoms: _240  and  _241
REMARK  105  A    between atoms: _240  and  _243
REMARK  106  A    between atoms: _243  and  _244
REMARK  107  A    between atoms: _244  and  _245
REMARK  108  A    between atoms: _247  and  _249
REMARK  109  A    between atoms: _249  and  _250
REMARK  110  A    between atoms: _249  and  _252
REMARK  111  A    between atoms: _255  and  _257
REMARK  112  A    between atoms: _257  and  _258
REMARK  113  A    between atoms: _257  and  _260
REMARK  114  A    between atoms: _260  and  _261
REMARK  115  A    between atoms: _261  and  _262
REMARK  116  A    between atoms: _262  and  _263
REMARK  117  A    between atoms: _263  and  _264
REMARK  118  A    between atoms: _268  and  _270
REMARK  119  A    between atoms: _270  and  _271
REMARK  120  A    between atoms: _270  and  _273
REMARK  121  A    between atoms: _276  and  _278
REMARK  122  A    between atoms: _278  and  _279
REMARK  123  A    between atoms: _278  and  _281
REMARK  124  A    between atoms: _281  and  _282
REMARK  125  A    between atoms: _285  and  _287
REMARK  126  A    between atoms: _287  and  _288
REMARK  127  A    between atoms: _287  and  _290
REMARK  128  A    between atoms: _290  and  _291
REMARK  129  A    between atoms: _294  and  _296
REMARK  130  A    between atoms: _296  and  _297
REMARK  131  A    between atoms: _296  and  _299
REMARK  132  A    between atoms: _299  and  _300
REMARK  133  A    between atoms: _302  and  _304
REMARK  134  A    between atoms: _304  and  _305
REMARK  135  A    between atoms: _307  and  _309
REMARK  136  A    between atoms: _309  and  _310
REMARK  137  A    between atoms: _309  and  _312
REMARK  138  A    between atoms: _312  and  _313
REMARK  139  A    between atoms: _313  and  _314
REMARK  140  A    between atoms: _317  and  _319
REMARK  141  A    between atoms: _319  and  _320
REMARK  142  A    between atoms: _319  and  _322
REMARK  143  A    between atoms: _322  and  _323
REMARK  144  A    between atoms: _326  and  _328
REMARK  145  A    between atoms: _328  and  _329
REMARK  146  A    between atoms: _328  and  _331
REMARK  147  A    between atoms: _331  and  _332
REMARK  148  A    between atoms: _335  and  _337
REMARK  149  A    between atoms: _337  and  _338
REMARK  150  A    between atoms: _341  and  _343
REMARK  151  A    between atoms: _343  and  _344
REMARK  152  A    between atoms: _347  and  _349
REMARK  153  A    between atoms: _349  and  _350
REMARK  154  A    between atoms: _349  and  _352
REMARK  155  A    between atoms: _352  and  _353
REMARK  156  A    between atoms: _356  and  _358
REMARK  157  A    between atoms: _358  and  _359
REMARK  158  A    between atoms: _358  and  _361
REMARK  159  A    between atoms: _361  and  _362
REMARK  160  A    between atoms: _365  and  _367
REMARK  161  A    between atoms: _367  and  _368
REMARK  162  A    between atoms: _367  and  _370
REMARK  163  A    between atoms: _370  and  _371
REMARK  164  A    between atoms: _376  and  _377
REMARK  165  A    between atoms: _379  and  _381
REMARK  166  A    between atoms: _381  and  _382
REMARK  167  A    between atoms: _381  and  _384
REMARK  168  A    between atoms: _384  and  _385
REMARK  169  A    between atoms: _387  and  _389
REMARK  170  A    between atoms: _389  and  _390
REMARK  171  A    between atoms: _389  and  _392
REMARK  172  A    between atoms: _392  and  _393
REMARK  173  A    between atoms: _396  and  _398
REMARK  174  A    between atoms: _398  and  _399
REMARK  175  A    between atoms: _398  and  _401
REMARK  176  A    between atoms: _401  and  _402
REMARK  177  A    between atoms: _405  and  _407
REMARK  178  A    between atoms: _407  and  _408
REMARK  179  A    between atoms: _411  and  _413
REMARK  180  A    between atoms: _413  and  _414
REMARK  181  A    between atoms: _413  and  _416
REMARK  182  A    between atoms: _419  and  _421
REMARK  183  A    between atoms: _421  and  _422
REMARK  184  A    between atoms: _421  and  _424
REMARK  185  A    between atoms: _424  and  _425
REMARK  186  A    between atoms: _430  and  _431
REMARK  187  A    between atoms: _433  and  _435
REMARK  188  A    between atoms: _435  and  _436
REMARK  189  A    between atoms: _435  and  _438
REMARK  190  A    between atoms: _438  and  _439
REMARK  191  A    between atoms: _441  and  _443
REMARK  192  A    between atoms: _443  and  _444
REMARK  193  A    between atoms: _443  and  _446
REMARK  194  A    between atoms: _446  and  _447
REMARK  195  A    between atoms: _452  and  _453
REMARK  196  A    between atoms: _455  and  _457
REMARK  197  A    between atoms: _457  and  _458
REMARK  198  A    between atoms: _457  and  _460
REMARK  199  A    between atoms: _460  and  _461
REMARK                            x       y       z     vdW  Elec       q    Type
REMARK                         _______ _______ _______ _____ _____    ______ ____
ROOT
ATOM      1  O   HOH     1      20.922   0.246 -16.191  0.00  0.00    +0.000 OA
ENDROOT
TORSDOF 0
REMARK  Name = ../refined-set-2016/3neo/3neo_pocket.pdb
REMARK  199 active torsions:
REMARK  status: ('A' for Active; 'I' for Inactive)
REMARK    1  A    between atoms: _1  and  _3
REMARK    2  A    between atoms: _3  and  _4
REMARK    3  A    between atoms: _3  and  _6
REMARK    4  A    between atoms: _6  and  _7
REMARK    5  A    between atoms: _7  and  _8
REMARK    6  A    between atoms: _10  and  _12
REMARK    7  A    between atoms: _12  and  _13
REMARK    8  A    between atoms: _12  and  _15
REMARK    9  A    between atoms: _18  and  _20
REMARK   10  A    between atoms: _20  and  _21
REMARK   11  A    between atoms: _20  and  _23
REMARK   12  A    between atoms: _23  and  _24
REMARK   13  A    between atoms: _24  and  _25
REMARK   14  A    between atoms: _25  and  _26
REMARK   15  A    between atoms: _26  and  _27
REMARK   16  A    between atoms: _31  and  _33
REMARK   17  A    between atoms: _33  and  _34
REMARK   18  A    between atoms: _33  and  _36
REMARK   19  A    between atoms: _39  and  _41
REMARK   20  A    between atoms: _41  and  _42
REMARK   21  A    between atoms: _41  and  _44
REMARK   22  A    between atoms: _44  and  _45
REMARK   23  A    between atoms: _48  and  _50
REMARK   24  A    between atoms: _50  and  _51
REMARK   25  A    between atoms: _50  and  _53
REMARK   26  A    between atoms: _53  and  _54
REMARK   27  A    between atoms: _57  and  _59
REMARK   28  A    between atoms: _59  and  _60
REMARK   29  A    between atoms: _63  and  _65
REMARK   30  A    between atoms: _65  and  _66
REMARK   31  A    between atoms: _65  and  _68
REMARK   32  A    between atoms: _68  and  _69
REMARK   33  A    between atoms: _71  and  _73
REMARK   34  A    between atoms: _73  and  _74
REMARK   35  A    between atoms: _76  and  _78
REMARK   36  A    between atoms: _78  and  _79
REMARK   37  A    between atoms: _78  and  _81
REMARK   38  A    between atoms: _81  and  _82
REMARK   39  A    between atoms: _82  and  _83
REMARK   40  A    between atoms: _86  and  _88
REMARK   41  A    between atoms: _88  and  _89
REMARK   42  A    between atoms: _88  and  _91
REMARK   43  A    between atoms: _91  and  _92
REMARK   44  A    between atoms: _95  and  _97
REMARK   45  A    between atoms: _97  and  _98
REMARK   46  A    between atoms: _97  and  _100
REMARK   47  A    between atoms: _100  and  _101
REMARK   48  A    between atoms: _106  and  _108
REMARK   49  A    between atoms: _108  and  _109
REMARK   50  A    between atoms: _108  and  _111
REMARK   51  A    between atoms: _111  and  _112
REMARK   52  A    between atoms: _115  and  _117
REMARK   53  A    between atoms: _117  and  _118
REMARK   54  A    between atoms: _117  and  _120
REMARK   55  A    between atoms: _120  and  _121
REMARK   56  A    between atoms: _124  and  _126
REMARK   57  A    between atoms: _126  and  _127
REMARK   58  A    between atoms: _130  and  _132
REMARK   59  A    between atoms: _132  and  _133
REMARK   60  A    between atoms: _136  and  _138
REMARK   61  A    between atoms: _138  and  _139
REMARK   62  A    between atoms: _138  and  _141
REMARK   63  A    between atoms: _141  and  _142
REMARK   64  A    between atoms: _145  and  _147
REMARK   65  A    between atoms: _147  and  _148
REMARK   66  A    between atoms: _147  and  _150
REMARK   67  A    between atoms: _150  and  _151
REMARK   68  A    between atoms: _154  and  _156
REMARK   69  A    between atoms: _156  and  _157
REMARK   70  A    between atoms: _156  and  _159
REMARK   71  A    between atoms: _159  and  _160
REMARK   72  A    between atoms: _165  and  _166
REMARK   73  A    between atoms: _168  and  _170
REMARK   74  A    between atoms: _170  and  _171
REMARK   75  A    between atoms: _170  and  _173
REMARK   76  A    between atoms: _173  and  _174
REMARK   77  A    between atoms: _176  and  _178
REMARK   78  A    between atoms: _178  and  _179
REMARK   79  A    between atoms: _178  and  _181
REMARK   80  A    between atoms: _181  and  _182
REMARK   81  A    between atoms: _185  and  _187
REMARK   82  A    between atoms: _187  and  _188
REMARK   83  A    between atoms: _187  and  _190
REMARK   84  A    between atoms: _190  and  _191
REMARK   85  A    between atoms: _194  and  _196
REMARK   86  A    between atoms: _196  and  _197
REMARK   87  A    between atoms: _200  and  _202
REMARK   88  A    between atoms: _202  and  _203
REMARK   89  A    between atoms: _202  and  _205
REMARK   90  A    between atoms: _208  and  _210
REMARK   91  A    between atoms: _210  and  _211
REMARK   92  A    between atoms: _210  and  _213
REMARK   93  A    between atoms: _213  and  _214
REMARK   94  A    between atoms: _216  and  _218
REMARK   95  A    between atoms: _218  and  _219
REMARK   96  A    between atoms: _218  and  _221
REMARK   97  A    between atoms: _221  and  _222
REMARK   98  A    between atoms: _227  and  _228
REMARK   99  A    between atoms: _230  and  _232
REMARK  100  A    between atoms: _232  and  _233
REMARK  101  A    between atoms: _232  and  _235
REMARK  102  A    between atoms: _235  and  _236
REMARK  103  A    between atoms: _238  and  _240
REMARK  104  A    between atoms: _240  and  _241
REMARK  105  A    between atoms: _240  and  _243
REMARK  106  A    between atoms: _243  and  _244
REMARK  107  A    between atoms: _244  and  _245
REMARK  108  A    between atoms: _247  and  _249
REMARK  109  A    between atoms: _249  and  _250
REMARK  110  A    between atoms: _249  and  _252
REMARK  111  A    between atoms: _255  and  _257
REMARK  112  A    between atoms: _257  and  _258
REMARK  113  A    between atoms: _257  and  _260
REMARK  114  A    between atoms: _260  and  _261
REMARK  115  A    between atoms: _261  and  _262
REMARK  116  A    between atoms: _262  and  _263
REMARK  117  A    between atoms: _263  and  _264
REMARK  118  A    between atoms: _268  and  _270
REMARK  119  A    between atoms: _270  and  _271
REMARK  120  A    between atoms: _270  and  _273
REMARK  121  A    between atoms: _276  and  _278
REMARK  122  A    between atoms: _278  and  _279
REMARK  123  A    between atoms: _278  and  _281
REMARK  124  A    between atoms: _281  and  _282
REMARK  125  A    between atoms: _285  and  _287
REMARK  126  A    between atoms: _287  and  _288
REMARK  127  A    between atoms: _287  and  _290
REMARK  128  A    between atoms: _290  and  _291
REMARK  129  A    between atoms: _294  and  _296
REMARK  130  A    between atoms: _296  and  _297
REMARK  131  A    between atoms: _296  and  _299
REMARK  132  A    between atoms: _299  and  _300
REMARK  133  A    between atoms: _302  and  _304
REMARK  134  A    between atoms: _304  and  _305
REMARK  135  A    between atoms: _307  and  _309
REMARK  136  A    between atoms: _309  and  _310
REMARK  137  A    between atoms: _309  and  _312
REMARK  138  A    between atoms: _312  and  _313
REMARK  139  A    between atoms: _313  and  _314
REMARK  140  A    between atoms: _317  and  _319
REMARK  141  A    between atoms: _319  and  _320
REMARK  142  A    between atoms: _319  and  _322
REMARK  143  A    between atoms: _322  and  _323
REMARK  144  A    between atoms: _326  and  _328
REMARK  145  A    between atoms: _328  and  _329
REMARK  146  A    between atoms: _328  and  _331
REMARK  147  A    between atoms: _331  and  _332
REMARK  148  A    between atoms: _335  and  _337
REMARK  149  A    between atoms: _337  and  _338
REMARK  150  A    between atoms: _341  and  _343
REMARK  151  A    between atoms: _343  and  _344
REMARK  152  A    between atoms: _347  and  _349
REMARK  153  A    between atoms: _349  and  _350
REMARK  154  A    between atoms: _349  and  _352
REMARK  155  A    between atoms: _352  and  _353
REMARK  156  A    between atoms: _356  and  _358
REMARK  157  A    between atoms: _358  and  _359
REMARK  158  A    between atoms: _358  and  _361
REMARK  159  A    between atoms: _361  and  _362
REMARK  160  A    between atoms: _365  and  _367
REMARK  161  A    between atoms: _367  and  _368
REMARK  162  A    between atoms: _367  and  _370
REMARK  163  A    between atoms: _370  and  _371
REMARK  164  A    between atoms: _376  and  _377
REMARK  165  A    between atoms: _379  and  _381
REMARK  166  A    between atoms: _381  and  _382
REMARK  167  A    between atoms: _381  and  _384
REMARK  168  A    between atoms: _384  and  _385
REMARK  169  A    between atoms: _387  and  _389
REMARK  170  A    between atoms: _389  and  _390
REMARK  171  A    between atoms: _389  and  _392
REMARK  172  A    between atoms: _392  and  _393
REMARK  173  A    between atoms: _396  and  _398
REMARK  174  A    between atoms: _398  and  _399
REMARK  175  A    between atoms: _398  and  _401
REMARK  176  A    between atoms: _401  and  _402
REMARK  177  A    between atoms: _405  and  _407
REMARK  178  A    between atoms: _407  and  _408
REMARK  179  A    between atoms: _411  and  _413
REMARK  180  A    between atoms: _413  and  _414
REMARK  181  A    between atoms: _413  and  _416
REMARK  182  A    between atoms: _419  and  _421
REMARK  183  A    between atoms: _421  and  _422
REMARK  184  A    between atoms: _421  and  _424
REMARK  185  A    between atoms: _424  and  _425
REMARK  186  A    between atoms: _430  and  _431
REMARK  187  A    between atoms: _433  and  _435
REMARK  188  A    between atoms: _435  and  _436
REMARK  189  A    between atoms: _435  and  _438
REMARK  190  A    between atoms: _438  and  _439
REMARK  191  A    between atoms: _441  and  _443
REMARK  192  A    between atoms: _443  and  _444
REMARK  193  A    between atoms: _443  and  _446
REMARK  194  A    between atoms: _446  and  _447
REMARK  195  A    between atoms: _452  and  _453
REMARK  196  A    between atoms: _455  and  _457
REMARK  197  A    between atoms: _457  and  _458
REMARK  198  A    between atoms: _457  and  _460
REMARK  199  A    between atoms: _460  and  _461
REMARK                            x       y       z     vdW  Elec       q    Type
REMARK                         _______ _______ _______ _____ _____    ______ ____
ROOT
ATOM      1  O   HOH     1      16.369  -1.028 -31.538  0.00  0.00    +0.000 OA
ENDROOT
TORSDOF 0
REMARK  Name = ../refined-set-2016/3neo/3neo_pocket.pdb
REMARK  199 active torsions:
REMARK  status: ('A' for Active; 'I' for Inactive)
REMARK    1  A    between atoms: _1  and  _3
REMARK    2  A    between atoms: _3  and  _4
REMARK    3  A    between atoms: _3  and  _6
REMARK    4  A    between atoms: _6  and  _7
REMARK    5  A    between atoms: _7  and  _8
REMARK    6  A    between atoms: _10  and  _12
REMARK    7  A    between atoms: _12  and  _13
REMARK    8  A    between atoms: _12  and  _15
REMARK    9  A    between atoms: _18  and  _20
REMARK   10  A    between atoms: _20  and  _21
REMARK   11  A    between atoms: _20  and  _23
REMARK   12  A    between atoms: _23  and  _24
REMARK   13  A    between atoms: _24  and  _25
REMARK   14  A    between atoms: _25  and  _26
REMARK   15  A    between atoms: _26  and  _27
REMARK   16  A    between atoms: _31  and  _33
REMARK   17  A    between atoms: _33  and  _34
REMARK   18  A    between atoms: _33  and  _36
REMARK   19  A    between atoms: _39  and  _41
REMARK   20  A    between atoms: _41  and  _42
REMARK   21  A    between atoms: _41  and  _44
REMARK   22  A    between atoms: _44  and  _45
REMARK   23  A    between atoms: _48  and  _50
REMARK   24  A    between atoms: _50  and  _51
REMARK   25  A    between atoms: _50  and  _53
REMARK   26  A    between atoms: _53  and  _54
REMARK   27  A    between atoms: _57  and  _59
REMARK   28  A    between atoms: _59  and  _60
REMARK   29  A    between atoms: _63  and  _65
REMARK   30  A    between atoms: _65  and  _66
REMARK   31  A    between atoms: _65  and  _68
REMARK   32  A    between atoms: _68  and  _69
REMARK   33  A    between atoms: _71  and  _73
REMARK   34  A    between atoms: _73  and  _74
REMARK   35  A    between atoms: _76  and  _78
REMARK   36  A    between atoms: _78  and  _79
REMARK   37  A    between atoms: _78  and  _81
REMARK   38  A    between atoms: _81  and  _82
REMARK   39  A    between atoms: _82  and  _83
REMARK   40  A    between atoms: _86  and  _88
REMARK   41  A    between atoms: _88  and  _89
REMARK   42  A    between atoms: _88  and  _91
REMARK   43  A    between atoms: _91  and  _92
REMARK   44  A    between atoms: _95  and  _97
REMARK   45  A    between atoms: _97  and  _98
REMARK   46  A    between atoms: _97  and  _100
REMARK   47  A    between atoms: _100  and  _101
REMARK   48  A    between atoms: _106  and  _108
REMARK   49  A    between atoms: _108  and  _109
REMARK   50  A    between atoms: _108  and  _111
REMARK   51  A    between atoms: _111  and  _112
REMARK   52  A    between atoms: _115  and  _117
REMARK   53  A    between atoms: _117  and  _118
REMARK   54  A    between atoms: _117  and  _120
REMARK   55  A    between atoms: _120  and  _121
REMARK   56  A    between atoms: _124  and  _126
REMARK   57  A    between atoms: _126  and  _127
REMARK   58  A    between atoms: _130  and  _132
REMARK   59  A    between atoms: _132  and  _133
REMARK   60  A    between atoms: _136  and  _138
REMARK   61  A    between atoms: _138  and  _139
REMARK   62  A    between atoms: _138  and  _141
REMARK   63  A    between atoms: _141  and  _142
REMARK   64  A    between atoms: _145  and  _147
REMARK   65  A    between atoms: _147  and  _148
REMARK   66  A    between atoms: _147  and  _150
REMARK   67  A    between atoms: _150  and  _151
REMARK   68  A    between atoms: _154  and  _156
REMARK   69  A    between atoms: _156  and  _157
REMARK   70  A    between atoms: _156  and  _159
REMARK   71  A    between atoms: _159  and  _160
REMARK   72  A    between atoms: _165  and  _166
REMARK   73  A    between atoms: _168  and  _170
REMARK   74  A    between atoms: _170  and  _171
REMARK   75  A    between atoms: _170  and  _173
REMARK   76  A    between atoms: _173  and  _174
REMARK   77  A    between atoms: _176  and  _178
REMARK   78  A    between atoms: _178  and  _179
REMARK   79  A    between atoms: _178  and  _181
REMARK   80  A    between atoms: _181  and  _182
REMARK   81  A    between atoms: _185  and  _187
REMARK   82  A    between atoms: _187  and  _188
REMARK   83  A    between atoms: _187  and  _190
REMARK   84  A    between atoms: _190  and  _191
REMARK   85  A    between atoms: _194  and  _196
REMARK   86  A    between atoms: _196  and  _197
REMARK   87  A    between atoms: _200  and  _202
REMARK   88  A    between atoms: _202  and  _203
REMARK   89  A    between atoms: _202  and  _205
REMARK   90  A    between atoms: _208  and  _210
REMARK   91  A    between atoms: _210  and  _211
REMARK   92  A    between atoms: _210  and  _213
REMARK   93  A    between atoms: _213  and  _214
REMARK   94  A    between atoms: _216  and  _218
REMARK   95  A    between atoms: _218  and  _219
REMARK   96  A    between atoms: _218  and  _221
REMARK   97  A    between atoms: _221  and  _222
REMARK   98  A    between atoms: _227  and  _228
REMARK   99  A    between atoms: _230  and  _232
REMARK  100  A    between atoms: _232  and  _233
REMARK  101  A    between atoms: _232  and  _235
REMARK  102  A    between atoms: _235  and  _236
REMARK  103  A    between atoms: _238  and  _240
REMARK  104  A    between atoms: _240  and  _241
REMARK  105  A    between atoms: _240  and  _243
REMARK  106  A    between atoms: _243  and  _244
REMARK  107  A    between atoms: _244  and  _245
REMARK  108  A    between atoms: _247  and  _249
REMARK  109  A    between atoms: _249  and  _250
REMARK  110  A    between atoms: _249  and  _252
REMARK  111  A    between atoms: _255  and  _257
REMARK  112  A    between atoms: _257  and  _258
REMARK  113  A    between atoms: _257  and  _260
REMARK  114  A    between atoms: _260  and  _261
REMARK  115  A    between atoms: _261  and  _262
REMARK  116  A    between atoms: _262  and  _263
REMARK  117  A    between atoms: _263  and  _264
REMARK  118  A    between atoms: _268  and  _270
REMARK  119  A    between atoms: _270  and  _271
REMARK  120  A    between atoms: _270  and  _273
REMARK  121  A    between atoms: _276  and  _278
REMARK  122  A    between atoms: _278  and  _279
REMARK  123  A    between atoms: _278  and  _281
REMARK  124  A    between atoms: _281  and  _282
REMARK  125  A    between atoms: _285  and  _287
REMARK  126  A    between atoms: _287  and  _288
REMARK  127  A    between atoms: _287  and  _290
REMARK  128  A    between atoms: _290  and  _291
REMARK  129  A    between atoms: _294  and  _296
REMARK  130  A    between atoms: _296  and  _297
REMARK  131  A    between atoms: _296  and  _299
REMARK  132  A    between atoms: _299  and  _300
REMARK  133  A    between atoms: _302  and  _304
REMARK  134  A    between atoms: _304  and  _305
REMARK  135  A    between atoms: _307  and  _309
REMARK  136  A    between atoms: _309  and  _310
REMARK  137  A    between atoms: _309  and  _312
REMARK  138  A    between atoms: _312  and  _313
REMARK  139  A    between atoms: _313  and  _314
REMARK  140  A    between atoms: _317  and  _319
REMARK  141  A    between atoms: _319  and  _320
REMARK  142  A    between atoms: _319  and  _322
REMARK  143  A    between atoms: _322  and  _323
REMARK  144  A    between atoms: _326  and  _328
REMARK  145  A    between atoms: _328  and  _329
REMARK  146  A    between atoms: _328  and  _331
REMARK  147  A    between atoms: _331  and  _332
REMARK  148  A    between atoms: _335  and  _337
REMARK  149  A    between atoms: _337  and  _338
REMARK  150  A    between atoms: _341  and  _343
REMARK  151  A    between atoms: _343  and  _344
REMARK  152  A    between atoms: _347  and  _349
REMARK  153  A    between atoms: _349  and  _350
REMARK  154  A    between atoms: _349  and  _352
REMARK  155  A    between atoms: _352  and  _353
REMARK  156  A    between atoms: _356  and  _358
REMARK  157  A    between atoms: _358  and  _359
REMARK  158  A    between atoms: _358  and  _361
REMARK  159  A    between atoms: _361  and  _362
REMARK  160  A    between atoms: _365  and  _367
REMARK  161  A    between atoms: _367  and  _368
REMARK  162  A    between atoms: _367  and  _370
REMARK  163  A    between atoms: _370  and  _371
REMARK  164  A    between atoms: _376  and  _377
REMARK  165  A    between atoms: _379  and  _381
REMARK  166  A    between atoms: _381  and  _382
REMARK  167  A    between atoms: _381  and  _384
REMARK  168  A    between atoms: _384  and  _385
REMARK  169  A    between atoms: _387  and  _389
REMARK  170  A    between atoms: _389  and  _390
REMARK  171  A    between atoms: _389  and  _392
REMARK  172  A    between atoms: _392  and  _393
REMARK  173  A    between atoms: _396  and  _398
REMARK  174  A    between atoms: _398  and  _399
REMARK  175  A    between atoms: _398  and  _401
REMARK  176  A    between atoms: _401  and  _402
REMARK  177  A    between atoms: _405  and  _407
REMARK  178  A    between atoms: _407  and  _408
REMARK  179  A    between atoms: _411  and  _413
REMARK  180  A    between atoms: _413  and  _414
REMARK  181  A    between atoms: _413  and  _416
REMARK  182  A    between atoms: _419  and  _421
REMARK  183  A    between atoms: _421  and  _422
REMARK  184  A    between atoms: _421  and  _424
REMARK  185  A    between atoms: _424  and  _425
REMARK  186  A    between atoms: _430  and  _431
REMARK  187  A    between atoms: _433  and  _435
REMARK  188  A    between atoms: _435  and  _436
REMARK  189  A    between atoms: _435  and  _438
REMARK  190  A    between atoms: _438  and  _439
REMARK  191  A    between atoms: _441  and  _443
REMARK  192  A    between atoms: _443  and  _444
REMARK  193  A    between atoms: _443  and  _446
REMARK  194  A    between atoms: _446  and  _447
REMARK  195  A    between atoms: _452  and  _453
REMARK  196  A    between atoms: _455  and  _457
REMARK  197  A    between atoms: _457  and  _458
REMARK  198  A    between atoms: _457  and  _460
REMARK  199  A    between atoms: _460  and  _461
REMARK                            x       y       z     vdW  Elec       q    Type
REMARK                         _______ _______ _______ _____ _____    ______ ____
ROOT
ATOM      1  O   HOH     1      15.681   2.593 -17.339  0.00  0.00    +0.000 OA
ENDROOT
TORSDOF 0
REMARK  Name = ../refined-set-2016/3neo/3neo_pocket.pdb
REMARK  199 active torsions:
REMARK  status: ('A' for Active; 'I' for Inactive)
REMARK    1  A    between atoms: _1  and  _3
REMARK    2  A    between atoms: _3  and  _4
REMARK    3  A    between atoms: _3  and  _6
REMARK    4  A    between atoms: _6  and  _7
REMARK    5  A    between atoms: _7  and  _8
REMARK    6  A    between atoms: _10  and  _12
REMARK    7  A    between atoms: _12  and  _13
REMARK    8  A    between atoms: _12  and  _15
REMARK    9  A    between atoms: _18  and  _20
REMARK   10  A    between atoms: _20  and  _21
REMARK   11  A    between atoms: _20  and  _23
REMARK   12  A    between atoms: _23  and  _24
REMARK   13  A    between atoms: _24  and  _25
REMARK   14  A    between atoms: _25  and  _26
REMARK   15  A    between atoms: _26  and  _27
REMARK   16  A    between atoms: _31  and  _33
REMARK   17  A    between atoms: _33  and  _34
REMARK   18  A    between atoms: _33  and  _36
REMARK   19  A    between atoms: _39  and  _41
REMARK   20  A    between atoms: _41  and  _42
REMARK   21  A    between atoms: _41  and  _44
REMARK   22  A    between atoms: _44  and  _45
REMARK   23  A    between atoms: _48  and  _50
REMARK   24  A    between atoms: _50  and  _51
REMARK   25  A    between atoms: _50  and  _53
REMARK   26  A    between atoms: _53  and  _54
REMARK   27  A    between atoms: _57  and  _59
REMARK   28  A    between atoms: _59  and  _60
REMARK   29  A    between atoms: _63  and  _65
REMARK   30  A    between atoms: _65  and  _66
REMARK   31  A    between atoms: _65  and  _68
REMARK   32  A    between atoms: _68  and  _69
REMARK   33  A    between atoms: _71  and  _73
REMARK   34  A    between atoms: _73  and  _74
REMARK   35  A    between atoms: _76  and  _78
REMARK   36  A    between atoms: _78  and  _79
REMARK   37  A    between atoms: _78  and  _81
REMARK   38  A    between atoms: _81  and  _82
REMARK   39  A    between atoms: _82  and  _83
REMARK   40  A    between atoms: _86  and  _88
REMARK   41  A    between atoms: _88  and  _89
REMARK   42  A    between atoms: _88  and  _91
REMARK   43  A    between atoms: _91  and  _92
REMARK   44  A    between atoms: _95  and  _97
REMARK   45  A    between atoms: _97  and  _98
REMARK   46  A    between atoms: _97  and  _100
REMARK   47  A    between atoms: _100  and  _101
REMARK   48  A    between atoms: _106  and  _108
REMARK   49  A    between atoms: _108  and  _109
REMARK   50  A    between atoms: _108  and  _111
REMARK   51  A    between atoms: _111  and  _112
REMARK   52  A    between atoms: _115  and  _117
REMARK   53  A    between atoms: _117  and  _118
REMARK   54  A    between atoms: _117  and  _120
REMARK   55  A    between atoms: _120  and  _121
REMARK   56  A    between atoms: _124  and  _126
REMARK   57  A    between atoms: _126  and  _127
REMARK   58  A    between atoms: _130  and  _132
REMARK   59  A    between atoms: _132  and  _133
REMARK   60  A    between atoms: _136  and  _138
REMARK   61  A    between atoms: _138  and  _139
REMARK   62  A    between atoms: _138  and  _141
REMARK   63  A    between atoms: _141  and  _142
REMARK   64  A    between atoms: _145  and  _147
REMARK   65  A    between atoms: _147  and  _148
REMARK   66  A    between atoms: _147  and  _150
REMARK   67  A    between atoms: _150  and  _151
REMARK   68  A    between atoms: _154  and  _156
REMARK   69  A    between atoms: _156  and  _157
REMARK   70  A    between atoms: _156  and  _159
REMARK   71  A    between atoms: _159  and  _160
REMARK   72  A    between atoms: _165  and  _166
REMARK   73  A    between atoms: _168  and  _170
REMARK   74  A    between atoms: _170  and  _171
REMARK   75  A    between atoms: _170  and  _173
REMARK   76  A    between atoms: _173  and  _174
REMARK   77  A    between atoms: _176  and  _178
REMARK   78  A    between atoms: _178  and  _179
REMARK   79  A    between atoms: _178  and  _181
REMARK   80  A    between atoms: _181  and  _182
REMARK   81  A    between atoms: _185  and  _187
REMARK   82  A    between atoms: _187  and  _188
REMARK   83  A    between atoms: _187  and  _190
REMARK   84  A    between atoms: _190  and  _191
REMARK   85  A    between atoms: _194  and  _196
REMARK   86  A    between atoms: _196  and  _197
REMARK   87  A    between atoms: _200  and  _202
REMARK   88  A    between atoms: _202  and  _203
REMARK   89  A    between atoms: _202  and  _205
REMARK   90  A    between atoms: _208  and  _210
REMARK   91  A    between atoms: _210  and  _211
REMARK   92  A    between atoms: _210  and  _213
REMARK   93  A    between atoms: _213  and  _214
REMARK   94  A    between atoms: _216  and  _218
REMARK   95  A    between atoms: _218  and  _219
REMARK   96  A    between atoms: _218  and  _221
REMARK   97  A    between atoms: _221  and  _222
REMARK   98  A    between atoms: _227  and  _228
REMARK   99  A    between atoms: _230  and  _232
REMARK  100  A    between atoms: _232  and  _233
REMARK  101  A    between atoms: _232  and  _235
REMARK  102  A    between atoms: _235  and  _236
REMARK  103  A    between atoms: _238  and  _240
REMARK  104  A    between atoms: _240  and  _241
REMARK  105  A    between atoms: _240  and  _243
REMARK  106  A    between atoms: _243  and  _244
REMARK  107  A    between atoms: _244  and  _245
REMARK  108  A    between atoms: _247  and  _249
REMARK  109  A    between atoms: _249  and  _250
REMARK  110  A    between atoms: _249  and  _252
REMARK  111  A    between atoms: _255  and  _257
REMARK  112  A    between atoms: _257  and  _258
REMARK  113  A    between atoms: _257  and  _260
REMARK  114  A    between atoms: _260  and  _261
REMARK  115  A    between atoms: _261  and  _262
REMARK  116  A    between atoms: _262  and  _263
REMARK  117  A    between atoms: _263  and  _264
REMARK  118  A    between atoms: _268  and  _270
REMARK  119  A    between atoms: _270  and  _271
REMARK  120  A    between atoms: _270  and  _273
REMARK  121  A    between atoms: _276  and  _278
REMARK  122  A    between atoms: _278  and  _279
REMARK  123  A    between atoms: _278  and  _281
REMARK  124  A    between atoms: _281  and  _282
REMARK  125  A    between atoms: _285  and  _287
REMARK  126  A    between atoms: _287  and  _288
REMARK  127  A    between atoms: _287  and  _290
REMARK  128  A    between atoms: _290  and  _291
REMARK  129  A    between atoms: _294  and  _296
REMARK  130  A    between atoms: _296  and  _297
REMARK  131  A    between atoms: _296  and  _299
REMARK  132  A    between atoms: _299  and  _300
REMARK  133  A    between atoms: _302  and  _304
REMARK  134  A    between atoms: _304  and  _305
REMARK  135  A    between atoms: _307  and  _309
REMARK  136  A    between atoms: _309  and  _310
REMARK  137  A    between atoms: _309  and  _312
REMARK  138  A    between atoms: _312  and  _313
REMARK  139  A    between atoms: _313  and  _314
REMARK  140  A    between atoms: _317  and  _319
REMARK  141  A    between atoms: _319  and  _320
REMARK  142  A    between atoms: _319  and  _322
REMARK  143  A    between atoms: _322  and  _323
REMARK  144  A    between atoms: _326  and  _328
REMARK  145  A    between atoms: _328  and  _329
REMARK  146  A    between atoms: _328  and  _331
REMARK  147  A    between atoms: _331  and  _332
REMARK  148  A    between atoms: _335  and  _337
REMARK  149  A    between atoms: _337  and  _338
REMARK  150  A    between atoms: _341  and  _343
REMARK  151  A    between atoms: _343  and  _344
REMARK  152  A    between atoms: _347  and  _349
REMARK  153  A    between atoms: _349  and  _350
REMARK  154  A    between atoms: _349  and  _352
REMARK  155  A    between atoms: _352  and  _353
REMARK  156  A    between atoms: _356  and  _358
REMARK  157  A    between atoms: _358  and  _359
REMARK  158  A    between atoms: _358  and  _361
REMARK  159  A    between atoms: _361  and  _362
REMARK  160  A    between atoms: _365  and  _367
REMARK  161  A    between atoms: _367  and  _368
REMARK  162  A    between atoms: _367  and  _370
REMARK  163  A    between atoms: _370  and  _371
REMARK  164  A    between atoms: _376  and  _377
REMARK  165  A    between atoms: _379  and  _381
REMARK  166  A    between atoms: _381  and  _382
REMARK  167  A    between atoms: _381  and  _384
REMARK  168  A    between atoms: _384  and  _385
REMARK  169  A    between atoms: _387  and  _389
REMARK  170  A    between atoms: _389  and  _390
REMARK  171  A    between atoms: _389  and  _392
REMARK  172  A    between atoms: _392  and  _393
REMARK  173  A    between atoms: _396  and  _398
REMARK  174  A    between atoms: _398  and  _399
REMARK  175  A    between atoms: _398  and  _401
REMARK  176  A    between atoms: _401  and  _402
REMARK  177  A    between atoms: _405  and  _407
REMARK  178  A    between atoms: _407  and  _408
REMARK  179  A    between atoms: _411  and  _413
REMARK  180  A    between atoms: _413  and  _414
REMARK  181  A    between atoms: _413  and  _416
REMARK  182  A    between atoms: _419  and  _421
REMARK  183  A    between atoms: _421  and  _422
REMARK  184  A    between atoms: _421  and  _424
REMARK  185  A    between atoms: _424  and  _425
REMARK  186  A    between atoms: _430  and  _431
REMARK  187  A    between atoms: _433  and  _435
REMARK  188  A    between atoms: _435  and  _436
REMARK  189  A    between atoms: _435  and  _438
REMARK  190  A    between atoms: _438  and  _439
REMARK  191  A    between atoms: _441  and  _443
REMARK  192  A    between atoms: _443  and  _444
REMARK  193  A    between atoms: _443  and  _446
REMARK  194  A    between atoms: _446  and  _447
REMARK  195  A    between atoms: _452  and  _453
REMARK  196  A    between atoms: _455  and  _457
REMARK  197  A    between atoms: _457  and  _458
REMARK  198  A    between atoms: _457  and  _460
REMARK  199  A    between atoms: _460  and  _461
REMARK                            x       y       z     vdW  Elec       q    Type
REMARK                         _______ _______ _______ _____ _____    ______ ____
ROOT
ATOM      1  O   HOH     1      13.724  -1.553 -24.451  0.00  0.00    +0.000 OA
ENDROOT
TORSDOF 0
REMARK  Name = ../refined-set-2016/3neo/3neo_pocket.pdb
REMARK  199 active torsions:
REMARK  status: ('A' for Active; 'I' for Inactive)
REMARK    1  A    between atoms: _1  and  _3
REMARK    2  A    between atoms: _3  and  _4
REMARK    3  A    between atoms: _3  and  _6
REMARK    4  A    between atoms: _6  and  _7
REMARK    5  A    between atoms: _7  and  _8
REMARK    6  A    between atoms: _10  and  _12
REMARK    7  A    between atoms: _12  and  _13
REMARK    8  A    between atoms: _12  and  _15
REMARK    9  A    between atoms: _18  and  _20
REMARK   10  A    between atoms: _20  and  _21
REMARK   11  A    between atoms: _20  and  _23
REMARK   12  A    between atoms: _23  and  _24
REMARK   13  A    between atoms: _24  and  _25
REMARK   14  A    between atoms: _25  and  _26
REMARK   15  A    between atoms: _26  and  _27
REMARK   16  A    between atoms: _31  and  _33
REMARK   17  A    between atoms: _33  and  _34
REMARK   18  A    between atoms: _33  and  _36
REMARK   19  A    between atoms: _39  and  _41
REMARK   20  A    between atoms: _41  and  _42
REMARK   21  A    between atoms: _41  and  _44
REMARK   22  A    between atoms: _44  and  _45
REMARK   23  A    between atoms: _48  and  _50
REMARK   24  A    between atoms: _50  and  _51
REMARK   25  A    between atoms: _50  and  _53
REMARK   26  A    between atoms: _53  and  _54
REMARK   27  A    between atoms: _57  and  _59
REMARK   28  A    between atoms: _59  and  _60
REMARK   29  A    between atoms: _63  and  _65
REMARK   30  A    between atoms: _65  and  _66
REMARK   31  A    between atoms: _65  and  _68
REMARK   32  A    between atoms: _68  and  _69
REMARK   33  A    between atoms: _71  and  _73
REMARK   34  A    between atoms: _73  and  _74
REMARK   35  A    between atoms: _76  and  _78
REMARK   36  A    between atoms: _78  and  _79
REMARK   37  A    between atoms: _78  and  _81
REMARK   38  A    between atoms: _81  and  _82
REMARK   39  A    between atoms: _82  and  _83
REMARK   40  A    between atoms: _86  and  _88
REMARK   41  A    between atoms: _88  and  _89
REMARK   42  A    between atoms: _88  and  _91
REMARK   43  A    between atoms: _91  and  _92
REMARK   44  A    between atoms: _95  and  _97
REMARK   45  A    between atoms: _97  and  _98
REMARK   46  A    between atoms: _97  and  _100
REMARK   47  A    between atoms: _100  and  _101
REMARK   48  A    between atoms: _106  and  _108
REMARK   49  A    between atoms: _108  and  _109
REMARK   50  A    between atoms: _108  and  _111
REMARK   51  A    between atoms: _111  and  _112
REMARK   52  A    between atoms: _115  and  _117
REMARK   53  A    between atoms: _117  and  _118
REMARK   54  A    between atoms: _117  and  _120
REMARK   55  A    between atoms: _120  and  _121
REMARK   56  A    between atoms: _124  and  _126
REMARK   57  A    between atoms: _126  and  _127
REMARK   58  A    between atoms: _130  and  _132
REMARK   59  A    between atoms: _132  and  _133
REMARK   60  A    between atoms: _136  and  _138
REMARK   61  A    between atoms: _138  and  _139
REMARK   62  A    between atoms: _138  and  _141
REMARK   63  A    between atoms: _141  and  _142
REMARK   64  A    between atoms: _145  and  _147
REMARK   65  A    between atoms: _147  and  _148
REMARK   66  A    between atoms: _147  and  _150
REMARK   67  A    between atoms: _150  and  _151
REMARK   68  A    between atoms: _154  and  _156
REMARK   69  A    between atoms: _156  and  _157
REMARK   70  A    between atoms: _156  and  _159
REMARK   71  A    between atoms: _159  and  _160
REMARK   72  A    between atoms: _165  and  _166
REMARK   73  A    between atoms: _168  and  _170
REMARK   74  A    between atoms: _170  and  _171
REMARK   75  A    between atoms: _170  and  _173
REMARK   76  A    between atoms: _173  and  _174
REMARK   77  A    between atoms: _176  and  _178
REMARK   78  A    between atoms: _178  and  _179
REMARK   79  A    between atoms: _178  and  _181
REMARK   80  A    between atoms: _181  and  _182
REMARK   81  A    between atoms: _185  and  _187
REMARK   82  A    between atoms: _187  and  _188
REMARK   83  A    between atoms: _187  and  _190
REMARK   84  A    between atoms: _190  and  _191
REMARK   85  A    between atoms: _194  and  _196
REMARK   86  A    between atoms: _196  and  _197
REMARK   87  A    between atoms: _200  and  _202
REMARK   88  A    between atoms: _202  and  _203
REMARK   89  A    between atoms: _202  and  _205
REMARK   90  A    between atoms: _208  and  _210
REMARK   91  A    between atoms: _210  and  _211
REMARK   92  A    between atoms: _210  and  _213
REMARK   93  A    between atoms: _213  and  _214
REMARK   94  A    between atoms: _216  and  _218
REMARK   95  A    between atoms: _218  and  _219
REMARK   96  A    between atoms: _218  and  _221
REMARK   97  A    between atoms: _221  and  _222
REMARK   98  A    between atoms: _227  and  _228
REMARK   99  A    between atoms: _230  and  _232
REMARK  100  A    between atoms: _232  and  _233
REMARK  101  A    between atoms: _232  and  _235
REMARK  102  A    between atoms: _235  and  _236
REMARK  103  A    between atoms: _238  and  _240
REMARK  104  A    between atoms: _240  and  _241
REMARK  105  A    between atoms: _240  and  _243
REMARK  106  A    between atoms: _243  and  _244
REMARK  107  A    between atoms: _244  and  _245
REMARK  108  A    between atoms: _247  and  _249
REMARK  109  A    between atoms: _249  and  _250
REMARK  110  A    between atoms: _249  and  _252
REMARK  111  A    between atoms: _255  and  _257
REMARK  112  A    between atoms: _257  and  _258
REMARK  113  A    between atoms: _257  and  _260
REMARK  114  A    between atoms: _260  and  _261
REMARK  115  A    between atoms: _261  and  _262
REMARK  116  A    between atoms: _262  and  _263
REMARK  117  A    between atoms: _263  and  _264
REMARK  118  A    between atoms: _268  and  _270
REMARK  119  A    between atoms: _270  and  _271
REMARK  120  A    between atoms: _270  and  _273
REMARK  121  A    between atoms: _276  and  _278
REMARK  122  A    between atoms: _278  and  _279
REMARK  123  A    between atoms: _278  and  _281
REMARK  124  A    between atoms: _281  and  _282
REMARK  125  A    between atoms: _285  and  _287
REMARK  126  A    between atoms: _287  and  _288
REMARK  127  A    between atoms: _287  and  _290
REMARK  128  A    between atoms: _290  and  _291
REMARK  129  A    between atoms: _294  and  _296
REMARK  130  A    between atoms: _296  and  _297
REMARK  131  A    between atoms: _296  and  _299
REMARK  132  A    between atoms: _299  and  _300
REMARK  133  A    between atoms: _302  and  _304
REMARK  134  A    between atoms: _304  and  _305
REMARK  135  A    between atoms: _307  and  _309
REMARK  136  A    between atoms: _309  and  _310
REMARK  137  A    between atoms: _309  and  _312
REMARK  138  A    between atoms: _312  and  _313
REMARK  139  A    between atoms: _313  and  _314
REMARK  140  A    between atoms: _317  and  _319
REMARK  141  A    between atoms: _319  and  _320
REMARK  142  A    between atoms: _319  and  _322
REMARK  143  A    between atoms: _322  and  _323
REMARK  144  A    between atoms: _326  and  _328
REMARK  145  A    between atoms: _328  and  _329
REMARK  146  A    between atoms: _328  and  _331
REMARK  147  A    between atoms: _331  and  _332
REMARK  148  A    between atoms: _335  and  _337
REMARK  149  A    between atoms: _337  and  _338
REMARK  150  A    between atoms: _341  and  _343
REMARK  151  A    between atoms: _343  and  _344
REMARK  152  A    between atoms: _347  and  _349
REMARK  153  A    between atoms: _349  and  _350
REMARK  154  A    between atoms: _349  and  _352
REMARK  155  A    between atoms: _352  and  _353
REMARK  156  A    between atoms: _356  and  _358
REMARK  157  A    between atoms: _358  and  _359
REMARK  158  A    between atoms: _358  and  _361
REMARK  159  A    between atoms: _361  and  _362
REMARK  160  A    between atoms: _365  and  _367
REMARK  161  A    between atoms: _367  and  _368
REMARK  162  A    between atoms: _367  and  _370
REMARK  163  A    between atoms: _370  and  _371
REMARK  164  A    between atoms: _376  and  _377
REMARK  165  A    between atoms: _379  and  _381
REMARK  166  A    between atoms: _381  and  _382
REMARK  167  A    between atoms: _381  and  _384
REMARK  168  A    between atoms: _384  and  _385
REMARK  169  A    between atoms: _387  and  _389
REMARK  170  A    between atoms: _389  and  _390
REMARK  171  A    between atoms: _389  and  _392
REMARK  172  A    between atoms: _392  and  _393
REMARK  173  A    between atoms: _396  and  _398
REMARK  174  A    between atoms: _398  and  _399
REMARK  175  A    between atoms: _398  and  _401
REMARK  176  A    between atoms: _401  and  _402
REMARK  177  A    between atoms: _405  and  _407
REMARK  178  A    between atoms: _407  and  _408
REMARK  179  A    between atoms: _411  and  _413
REMARK  180  A    between atoms: _413  and  _414
REMARK  181  A    between atoms: _413  and  _416
REMARK  182  A    between atoms: _419  and  _421
REMARK  183  A    between atoms: _421  and  _422
REMARK  184  A    between atoms: _421  and  _424
REMARK  185  A    between atoms: _424  and  _425
REMARK  186  A    between atoms: _430  and  _431
REMARK  187  A    between atoms: _433  and  _435
REMARK  188  A    between atoms: _435  and  _436
REMARK  189  A    between atoms: _435  and  _438
REMARK  190  A    between atoms: _438  and  _439
REMARK  191  A    between atoms: _441  and  _443
REMARK  192  A    between atoms: _443  and  _444
REMARK  193  A    between atoms: _443  and  _446
REMARK  194  A    between atoms: _446  and  _447
REMARK  195  A    between atoms: _452  and  _453
REMARK  196  A    between atoms: _455  and  _457
REMARK  197  A    between atoms: _457  and  _458
REMARK  198  A    between atoms: _457  and  _460
REMARK  199  A    between atoms: _460  and  _461
REMARK                            x       y       z     vdW  Elec       q    Type
REMARK                         _______ _______ _______ _____ _____    ______ ____
ROOT
ATOM      1  O   HOH     1      25.084   1.970 -16.486  0.00  0.00    +0.000 OA
ENDROOT
TORSDOF 0
REMARK  Name = ../refined-set-2016/3neo/3neo_pocket.pdb
REMARK  199 active torsions:
REMARK  status: ('A' for Active; 'I' for Inactive)
REMARK    1  A    between atoms: _1  and  _3
REMARK    2  A    between atoms: _3  and  _4
REMARK    3  A    between atoms: _3  and  _6
REMARK    4  A    between atoms: _6  and  _7
REMARK    5  A    between atoms: _7  and  _8
REMARK    6  A    between atoms: _10  and  _12
REMARK    7  A    between atoms: _12  and  _13
REMARK    8  A    between atoms: _12  and  _15
REMARK    9  A    between atoms: _18  and  _20
REMARK   10  A    between atoms: _20  and  _21
REMARK   11  A    between atoms: _20  and  _23
REMARK   12  A    between atoms: _23  and  _24
REMARK   13  A    between atoms: _24  and  _25
REMARK   14  A    between atoms: _25  and  _26
REMARK   15  A    between atoms: _26  and  _27
REMARK   16  A    between atoms: _31  and  _33
REMARK   17  A    between atoms: _33  and  _34
REMARK   18  A    between atoms: _33  and  _36
REMARK   19  A    between atoms: _39  and  _41
REMARK   20  A    between atoms: _41  and  _42
REMARK   21  A    between atoms: _41  and  _44
REMARK   22  A    between atoms: _44  and  _45
REMARK   23  A    between atoms: _48  and  _50
REMARK   24  A    between atoms: _50  and  _51
REMARK   25  A    between atoms: _50  and  _53
REMARK   26  A    between atoms: _53  and  _54
REMARK   27  A    between atoms: _57  and  _59
REMARK   28  A    between atoms: _59  and  _60
REMARK   29  A    between atoms: _63  and  _65
REMARK   30  A    between atoms: _65  and  _66
REMARK   31  A    between atoms: _65  and  _68
REMARK   32  A    between atoms: _68  and  _69
REMARK   33  A    between atoms: _71  and  _73
REMARK   34  A    between atoms: _73  and  _74
REMARK   35  A    between atoms: _76  and  _78
REMARK   36  A    between atoms: _78  and  _79
REMARK   37  A    between atoms: _78  and  _81
REMARK   38  A    between atoms: _81  and  _82
REMARK   39  A    between atoms: _82  and  _83
REMARK   40  A    between atoms: _86  and  _88
REMARK   41  A    between atoms: _88  and  _89
REMARK   42  A    between atoms: _88  and  _91
REMARK   43  A    between atoms: _91  and  _92
REMARK   44  A    between atoms: _95  and  _97
REMARK   45  A    between atoms: _97  and  _98
REMARK   46  A    between atoms: _97  and  _100
REMARK   47  A    between atoms: _100  and  _101
REMARK   48  A    between atoms: _106  and  _108
REMARK   49  A    between atoms: _108  and  _109
REMARK   50  A    between atoms: _108  and  _111
REMARK   51  A    between atoms: _111  and  _112
REMARK   52  A    between atoms: _115  and  _117
REMARK   53  A    between atoms: _117  and  _118
REMARK   54  A    between atoms: _117  and  _120
REMARK   55  A    between atoms: _120  and  _121
REMARK   56  A    between atoms: _124  and  _126
REMARK   57  A    between atoms: _126  and  _127
REMARK   58  A    between atoms: _130  and  _132
REMARK   59  A    between atoms: _132  and  _133
REMARK   60  A    between atoms: _136  and  _138
REMARK   61  A    between atoms: _138  and  _139
REMARK   62  A    between atoms: _138  and  _141
REMARK   63  A    between atoms: _141  and  _142
REMARK   64  A    between atoms: _145  and  _147
REMARK   65  A    between atoms: _147  and  _148
REMARK   66  A    between atoms: _147  and  _150
REMARK   67  A    between atoms: _150  and  _151
REMARK   68  A    between atoms: _154  and  _156
REMARK   69  A    between atoms: _156  and  _157
REMARK   70  A    between atoms: _156  and  _159
REMARK   71  A    between atoms: _159  and  _160
REMARK   72  A    between atoms: _165  and  _166
REMARK   73  A    between atoms: _168  and  _170
REMARK   74  A    between atoms: _170  and  _171
REMARK   75  A    between atoms: _170  and  _173
REMARK   76  A    between atoms: _173  and  _174
REMARK   77  A    between atoms: _176  and  _178
REMARK   78  A    between atoms: _178  and  _179
REMARK   79  A    between atoms: _178  and  _181
REMARK   80  A    between atoms: _181  and  _182
REMARK   81  A    between atoms: _185  and  _187
REMARK   82  A    between atoms: _187  and  _188
REMARK   83  A    between atoms: _187  and  _190
REMARK   84  A    between atoms: _190  and  _191
REMARK   85  A    between atoms: _194  and  _196
REMARK   86  A    between atoms: _196  and  _197
REMARK   87  A    between atoms: _200  and  _202
REMARK   88  A    between atoms: _202  and  _203
REMARK   89  A    between atoms: _202  and  _205
REMARK   90  A    between atoms: _208  and  _210
REMARK   91  A    between atoms: _210  and  _211
REMARK   92  A    between atoms: _210  and  _213
REMARK   93  A    between atoms: _213  and  _214
REMARK   94  A    between atoms: _216  and  _218
REMARK   95  A    between atoms: _218  and  _219
REMARK   96  A    between atoms: _218  and  _221
REMARK   97  A    between atoms: _221  and  _222
REMARK   98  A    between atoms: _227  and  _228
REMARK   99  A    between atoms: _230  and  _232
REMARK  100  A    between atoms: _232  and  _233
REMARK  101  A    between atoms: _232  and  _235
REMARK  102  A    between atoms: _235  and  _236
REMARK  103  A    between atoms: _238  and  _240
REMARK  104  A    between atoms: _240  and  _241
REMARK  105  A    between atoms: _240  and  _243
REMARK  106  A    between atoms: _243  and  _244
REMARK  107  A    between atoms: _244  and  _245
REMARK  108  A    between atoms: _247  and  _249
REMARK  109  A    between atoms: _249  and  _250
REMARK  110  A    between atoms: _249  and  _252
REMARK  111  A    between atoms: _255  and  _257
REMARK  112  A    between atoms: _257  and  _258
REMARK  113  A    between atoms: _257  and  _260
REMARK  114  A    between atoms: _260  and  _261
REMARK  115  A    between atoms: _261  and  _262
REMARK  116  A    between atoms: _262  and  _263
REMARK  117  A    between atoms: _263  and  _264
REMARK  118  A    between atoms: _268  and  _270
REMARK  119  A    between atoms: _270  and  _271
REMARK  120  A    between atoms: _270  and  _273
REMARK  121  A    between atoms: _276  and  _278
REMARK  122  A    between atoms: _278  and  _279
REMARK  123  A    between atoms: _278  and  _281
REMARK  124  A    between atoms: _281  and  _282
REMARK  125  A    between atoms: _285  and  _287
REMARK  126  A    between atoms: _287  and  _288
REMARK  127  A    between atoms: _287  and  _290
REMARK  128  A    between atoms: _290  and  _291
REMARK  129  A    between atoms: _294  and  _296
REMARK  130  A    between atoms: _296  and  _297
REMARK  131  A    between atoms: _296  and  _299
REMARK  132  A    between atoms: _299  and  _300
REMARK  133  A    between atoms: _302  and  _304
REMARK  134  A    between atoms: _304  and  _305
REMARK  135  A    between atoms: _307  and  _309
REMARK  136  A    between atoms: _309  and  _310
REMARK  137  A    between atoms: _309  and  _312
REMARK  138  A    between atoms: _312  and  _313
REMARK  139  A    between atoms: _313  and  _314
REMARK  140  A    between atoms: _317  and  _319
REMARK  141  A    between atoms: _319  and  _320
REMARK  142  A    between atoms: _319  and  _322
REMARK  143  A    between atoms: _322  and  _323
REMARK  144  A    between atoms: _326  and  _328
REMARK  145  A    between atoms: _328  and  _329
REMARK  146  A    between atoms: _328  and  _331
REMARK  147  A    between atoms: _331  and  _332
REMARK  148  A    between atoms: _335  and  _337
REMARK  149  A    between atoms: _337  and  _338
REMARK  150  A    between atoms: _341  and  _343
REMARK  151  A    between atoms: _343  and  _344
REMARK  152  A    between atoms: _347  and  _349
REMARK  153  A    between atoms: _349  and  _350
REMARK  154  A    between atoms: _349  and  _352
REMARK  155  A    between atoms: _352  and  _353
REMARK  156  A    between atoms: _356  and  _358
REMARK  157  A    between atoms: _358  and  _359
REMARK  158  A    between atoms: _358  and  _361
REMARK  159  A    between atoms: _361  and  _362
REMARK  160  A    between atoms: _365  and  _367
REMARK  161  A    between atoms: _367  and  _368
REMARK  162  A    between atoms: _367  and  _370
REMARK  163  A    between atoms: _370  and  _371
REMARK  164  A    between atoms: _376  and  _377
REMARK  165  A    between atoms: _379  and  _381
REMARK  166  A    between atoms: _381  and  _382
REMARK  167  A    between atoms: _381  and  _384
REMARK  168  A    between atoms: _384  and  _385
REMARK  169  A    between atoms: _387  and  _389
REMARK  170  A    between atoms: _389  and  _390
REMARK  171  A    between atoms: _389  and  _392
REMARK  172  A    between atoms: _392  and  _393
REMARK  173  A    between atoms: _396  and  _398
REMARK  174  A    between atoms: _398  and  _399
REMARK  175  A    between atoms: _398  and  _401
REMARK  176  A    between atoms: _401  and  _402
REMARK  177  A    between atoms: _405  and  _407
REMARK  178  A    between atoms: _407  and  _408
REMARK  179  A    between atoms: _411  and  _413
REMARK  180  A    between atoms: _413  and  _414
REMARK  181  A    between atoms: _413  and  _416
REMARK  182  A    between atoms: _419  and  _421
REMARK  183  A    between atoms: _421  and  _422
REMARK  184  A    between atoms: _421  and  _424
REMARK  185  A    between atoms: _424  and  _425
REMARK  186  A    between atoms: _430  and  _431
REMARK  187  A    between atoms: _433  and  _435
REMARK  188  A    between atoms: _435  and  _436
REMARK  189  A    between atoms: _435  and  _438
REMARK  190  A    between atoms: _438  and  _439
REMARK  191  A    between atoms: _441  and  _443
REMARK  192  A    between atoms: _443  and  _444
REMARK  193  A    between atoms: _443  and  _446
REMARK  194  A    between atoms: _446  and  _447
REMARK  195  A    between atoms: _452  and  _453
REMARK  196  A    between atoms: _455  and  _457
REMARK  197  A    between atoms: _457  and  _458
REMARK  198  A    between atoms: _457  and  _460
REMARK  199  A    between atoms: _460  and  _461
REMARK                            x       y       z     vdW  Elec       q    Type
REMARK                         _______ _______ _______ _____ _____    ______ ____
ROOT
ATOM      1  O   HOH     1      26.401   1.028 -31.538  0.00  0.00    +0.000 OA
ENDROOT
TORSDOF 0
REMARK  Name = ../refined-set-2016/3neo/3neo_pocket.pdb
REMARK  199 active torsions:
REMARK  status: ('A' for Active; 'I' for Inactive)
REMARK    1  A    between atoms: _1  and  _3
REMARK    2  A    between atoms: _3  and  _4
REMARK    3  A    between atoms: _3  and  _6
REMARK    4  A    between atoms: _6  and  _7
REMARK    5  A    between atoms: _7  and  _8
REMARK    6  A    between atoms: _10  and  _12
REMARK    7  A    between atoms: _12  and  _13
REMARK    8  A    between atoms: _12  and  _15
REMARK    9  A    between atoms: _18  and  _20
REMARK   10  A    between atoms: _20  and  _21
REMARK   11  A    between atoms: _20  and  _23
REMARK   12  A    between atoms: _23  and  _24
REMARK   13  A    between atoms: _24  and  _25
REMARK   14  A    between atoms: _25  and  _26
REMARK   15  A    between atoms: _26  and  _27
REMARK   16  A    between atoms: _31  and  _33
REMARK   17  A    between atoms: _33  and  _34
REMARK   18  A    between atoms: _33  and  _36
REMARK   19  A    between atoms: _39  and  _41
REMARK   20  A    between atoms: _41  and  _42
REMARK   21  A    between atoms: _41  and  _44
REMARK   22  A    between atoms: _44  and  _45
REMARK   23  A    between atoms: _48  and  _50
REMARK   24  A    between atoms: _50  and  _51
REMARK   25  A    between atoms: _50  and  _53
REMARK   26  A    between atoms: _53  and  _54
REMARK   27  A    between atoms: _57  and  _59
REMARK   28  A    between atoms: _59  and  _60
REMARK   29  A    between atoms: _63  and  _65
REMARK   30  A    between atoms: _65  and  _66
REMARK   31  A    between atoms: _65  and  _68
REMARK   32  A    between atoms: _68  and  _69
REMARK   33  A    between atoms: _71  and  _73
REMARK   34  A    between atoms: _73  and  _74
REMARK   35  A    between atoms: _76  and  _78
REMARK   36  A    between atoms: _78  and  _79
REMARK   37  A    between atoms: _78  and  _81
REMARK   38  A    between atoms: _81  and  _82
REMARK   39  A    between atoms: _82  and  _83
REMARK   40  A    between atoms: _86  and  _88
REMARK   41  A    between atoms: _88  and  _89
REMARK   42  A    between atoms: _88  and  _91
REMARK   43  A    between atoms: _91  and  _92
REMARK   44  A    between atoms: _95  and  _97
REMARK   45  A    between atoms: _97  and  _98
REMARK   46  A    between atoms: _97  and  _100
REMARK   47  A    between atoms: _100  and  _101
REMARK   48  A    between atoms: _106  and  _108
REMARK   49  A    between atoms: _108  and  _109
REMARK   50  A    between atoms: _108  and  _111
REMARK   51  A    between atoms: _111  and  _112
REMARK   52  A    between atoms: _115  and  _117
REMARK   53  A    between atoms: _117  and  _118
REMARK   54  A    between atoms: _117  and  _120
REMARK   55  A    between atoms: _120  and  _121
REMARK   56  A    between atoms: _124  and  _126
REMARK   57  A    between atoms: _126  and  _127
REMARK   58  A    between atoms: _130  and  _132
REMARK   59  A    between atoms: _132  and  _133
REMARK   60  A    between atoms: _136  and  _138
REMARK   61  A    between atoms: _138  and  _139
REMARK   62  A    between atoms: _138  and  _141
REMARK   63  A    between atoms: _141  and  _142
REMARK   64  A    between atoms: _145  and  _147
REMARK   65  A    between atoms: _147  and  _148
REMARK   66  A    between atoms: _147  and  _150
REMARK   67  A    between atoms: _150  and  _151
REMARK   68  A    between atoms: _154  and  _156
REMARK   69  A    between atoms: _156  and  _157
REMARK   70  A    between atoms: _156  and  _159
REMARK   71  A    between atoms: _159  and  _160
REMARK   72  A    between atoms: _165  and  _166
REMARK   73  A    between atoms: _168  and  _170
REMARK   74  A    between atoms: _170  and  _171
REMARK   75  A    between atoms: _170  and  _173
REMARK   76  A    between atoms: _173  and  _174
REMARK   77  A    between atoms: _176  and  _178
REMARK   78  A    between atoms: _178  and  _179
REMARK   79  A    between atoms: _178  and  _181
REMARK   80  A    between atoms: _181  and  _182
REMARK   81  A    between atoms: _185  and  _187
REMARK   82  A    between atoms: _187  and  _188
REMARK   83  A    between atoms: _187  and  _190
REMARK   84  A    between atoms: _190  and  _191
REMARK   85  A    between atoms: _194  and  _196
REMARK   86  A    between atoms: _196  and  _197
REMARK   87  A    between atoms: _200  and  _202
REMARK   88  A    between atoms: _202  and  _203
REMARK   89  A    between atoms: _202  and  _205
REMARK   90  A    between atoms: _208  and  _210
REMARK   91  A    between atoms: _210  and  _211
REMARK   92  A    between atoms: _210  and  _213
REMARK   93  A    between atoms: _213  and  _214
REMARK   94  A    between atoms: _216  and  _218
REMARK   95  A    between atoms: _218  and  _219
REMARK   96  A    between atoms: _218  and  _221
REMARK   97  A    between atoms: _221  and  _222
REMARK   98  A    between atoms: _227  and  _228
REMARK   99  A    between atoms: _230  and  _232
REMARK  100  A    between atoms: _232  and  _233
REMARK  101  A    between atoms: _232  and  _235
REMARK  102  A    between atoms: _235  and  _236
REMARK  103  A    between atoms: _238  and  _240
REMARK  104  A    between atoms: _240  and  _241
REMARK  105  A    between atoms: _240  and  _243
REMARK  106  A    between atoms: _243  and  _244
REMARK  107  A    between atoms: _244  and  _245
REMARK  108  A    between atoms: _247  and  _249
REMARK  109  A    between atoms: _249  and  _250
REMARK  110  A    between atoms: _249  and  _252
REMARK  111  A    between atoms: _255  and  _257
REMARK  112  A    between atoms: _257  and  _258
REMARK  113  A    between atoms: _257  and  _260
REMARK  114  A    between atoms: _260  and  _261
REMARK  115  A    between atoms: _261  and  _262
REMARK  116  A    between atoms: _262  and  _263
REMARK  117  A    between atoms: _263  and  _264
REMARK  118  A    between atoms: _268  and  _270
REMARK  119  A    between atoms: _270  and  _271
REMARK  120  A    between atoms: _270  and  _273
REMARK  121  A    between atoms: _276  and  _278
REMARK  122  A    between atoms: _278  and  _279
REMARK  123  A    between atoms: _278  and  _281
REMARK  124  A    between atoms: _281  and  _282
REMARK  125  A    between atoms: _285  and  _287
REMARK  126  A    between atoms: _287  and  _288
REMARK  127  A    between atoms: _287  and  _290
REMARK  128  A    between atoms: _290  and  _291
REMARK  129  A    between atoms: _294  and  _296
REMARK  130  A    between atoms: _296  and  _297
REMARK  131  A    between atoms: _296  and  _299
REMARK  132  A    between atoms: _299  and  _300
REMARK  133  A    between atoms: _302  and  _304
REMARK  134  A    between atoms: _304  and  _305
REMARK  135  A    between atoms: _307  and  _309
REMARK  136  A    between atoms: _309  and  _310
REMARK  137  A    between atoms: _309  and  _312
REMARK  138  A    between atoms: _312  and  _313
REMARK  139  A    between atoms: _313  and  _314
REMARK  140  A    between atoms: _317  and  _319
REMARK  141  A    between atoms: _319  and  _320
REMARK  142  A    between atoms: _319  and  _322
REMARK  143  A    between atoms: _322  and  _323
REMARK  144  A    between atoms: _326  and  _328
REMARK  145  A    between atoms: _328  and  _329
REMARK  146  A    between atoms: _328  and  _331
REMARK  147  A    between atoms: _331  and  _332
REMARK  148  A    between atoms: _335  and  _337
REMARK  149  A    between atoms: _337  and  _338
REMARK  150  A    between atoms: _341  and  _343
REMARK  151  A    between atoms: _343  and  _344
REMARK  152  A    between atoms: _347  and  _349
REMARK  153  A    between atoms: _349  and  _350
REMARK  154  A    between atoms: _349  and  _352
REMARK  155  A    between atoms: _352  and  _353
REMARK  156  A    between atoms: _356  and  _358
REMARK  157  A    between atoms: _358  and  _359
REMARK  158  A    between atoms: _358  and  _361
REMARK  159  A    between atoms: _361  and  _362
REMARK  160  A    between atoms: _365  and  _367
REMARK  161  A    between atoms: _367  and  _368
REMARK  162  A    between atoms: _367  and  _370
REMARK  163  A    between atoms: _370  and  _371
REMARK  164  A    between atoms: _376  and  _377
REMARK  165  A    between atoms: _379  and  _381
REMARK  166  A    between atoms: _381  and  _382
REMARK  167  A    between atoms: _381  and  _384
REMARK  168  A    between atoms: _384  and  _385
REMARK  169  A    between atoms: _387  and  _389
REMARK  170  A    between atoms: _389  and  _390
REMARK  171  A    between atoms: _389  and  _392
REMARK  172  A    between atoms: _392  and  _393
REMARK  173  A    between atoms: _396  and  _398
REMARK  174  A    between atoms: _398  and  _399
REMARK  175  A    between atoms: _398  and  _401
REMARK  176  A    between atoms: _401  and  _402
REMARK  177  A    between atoms: _405  and  _407
REMARK  178  A    between atoms: _407  and  _408
REMARK  179  A    between atoms: _411  and  _413
REMARK  180  A    between atoms: _413  and  _414
REMARK  181  A    between atoms: _413  and  _416
REMARK  182  A    between atoms: _419  and  _421
REMARK  183  A    between atoms: _421  and  _422
REMARK  184  A    between atoms: _421  and  _424
REMARK  185  A    between atoms: _424  and  _425
REMARK  186  A    between atoms: _430  and  _431
REMARK  187  A    between atoms: _433  and  _435
REMARK  188  A    between atoms: _435  and  _436
REMARK  189  A    between atoms: _435  and  _438
REMARK  190  A    between atoms: _438  and  _439
REMARK  191  A    between atoms: _441  and  _443
REMARK  192  A    between atoms: _443  and  _444
REMARK  193  A    between atoms: _443  and  _446
REMARK  194  A    between atoms: _446  and  _447
REMARK  195  A    between atoms: _452  and  _453
REMARK  196  A    between atoms: _455  and  _457
REMARK  197  A    between atoms: _457  and  _458
REMARK  198  A    between atoms: _457  and  _460
REMARK  199  A    between atoms: _460  and  _461
REMARK                            x       y       z     vdW  Elec       q    Type
REMARK                         _______ _______ _______ _____ _____    ______ ____
ROOT
ATOM      1  O   HOH     1      27.089  -2.593 -17.339  0.00  0.00    +0.000 OA
ENDROOT
TORSDOF 0
REMARK  Name = ../refined-set-2016/3neo/3neo_pocket.pdb
REMARK  199 active torsions:
REMARK  status: ('A' for Active; 'I' for Inactive)
REMARK    1  A    between atoms: _1  and  _3
REMARK    2  A    between atoms: _3  and  _4
REMARK    3  A    between atoms: _3  and  _6
REMARK    4  A    between atoms: _6  and  _7
REMARK    5  A    between atoms: _7  and  _8
REMARK    6  A    between atoms: _10  and  _12
REMARK    7  A    between atoms: _12  and  _13
REMARK    8  A    between atoms: _12  and  _15
REMARK    9  A    between atoms: _18  and  _20
REMARK   10  A    between atoms: _20  and  _21
REMARK   11  A    between atoms: _20  and  _23
REMARK   12  A    between atoms: _23  and  _24
REMARK   13  A    between atoms: _24  and  _25
REMARK   14  A    between atoms: _25  and  _26
REMARK   15  A    between atoms: _26  and  _27
REMARK   16  A    between atoms: _31  and  _33
REMARK   17  A    between atoms: _33  and  _34
REMARK   18  A    between atoms: _33  and  _36
REMARK   19  A    between atoms: _39  and  _41
REMARK   20  A    between atoms: _41  and  _42
REMARK   21  A    between atoms: _41  and  _44
REMARK   22  A    between atoms: _44  and  _45
REMARK   23  A    between atoms: _48  and  _50
REMARK   24  A    between atoms: _50  and  _51
REMARK   25  A    between atoms: _50  and  _53
REMARK   26  A    between atoms: _53  and  _54
REMARK   27  A    between atoms: _57  and  _59
REMARK   28  A    between atoms: _59  and  _60
REMARK   29  A    between atoms: _63  and  _65
REMARK   30  A    between atoms: _65  and  _66
REMARK   31  A    between atoms: _65  and  _68
REMARK   32  A    between atoms: _68  and  _69
REMARK   33  A    between atoms: _71  and  _73
REMARK   34  A    between atoms: _73  and  _74
REMARK   35  A    between atoms: _76  and  _78
REMARK   36  A    between atoms: _78  and  _79
REMARK   37  A    between atoms: _78  and  _81
REMARK   38  A    between atoms: _81  and  _82
REMARK   39  A    between atoms: _82  and  _83
REMARK   40  A    between atoms: _86  and  _88
REMARK   41  A    between atoms: _88  and  _89
REMARK   42  A    between atoms: _88  and  _91
REMARK   43  A    between atoms: _91  and  _92
REMARK   44  A    between atoms: _95  and  _97
REMARK   45  A    between atoms: _97  and  _98
REMARK   46  A    between atoms: _97  and  _100
REMARK   47  A    between atoms: _100  and  _101
REMARK   48  A    between atoms: _106  and  _108
REMARK   49  A    between atoms: _108  and  _109
REMARK   50  A    between atoms: _108  and  _111
REMARK   51  A    between atoms: _111  and  _112
REMARK   52  A    between atoms: _115  and  _117
REMARK   53  A    between atoms: _117  and  _118
REMARK   54  A    between atoms: _117  and  _120
REMARK   55  A    between atoms: _120  and  _121
REMARK   56  A    between atoms: _124  and  _126
REMARK   57  A    between atoms: _126  and  _127
REMARK   58  A    between atoms: _130  and  _132
REMARK   59  A    between atoms: _132  and  _133
REMARK   60  A    between atoms: _136  and  _138
REMARK   61  A    between atoms: _138  and  _139
REMARK   62  A    between atoms: _138  and  _141
REMARK   63  A    between atoms: _141  and  _142
REMARK   64  A    between atoms: _145  and  _147
REMARK   65  A    between atoms: _147  and  _148
REMARK   66  A    between atoms: _147  and  _150
REMARK   67  A    between atoms: _150  and  _151
REMARK   68  A    between atoms: _154  and  _156
REMARK   69  A    between atoms: _156  and  _157
REMARK   70  A    between atoms: _156  and  _159
REMARK   71  A    between atoms: _159  and  _160
REMARK   72  A    between atoms: _165  and  _166
REMARK   73  A    between atoms: _168  and  _170
REMARK   74  A    between atoms: _170  and  _171
REMARK   75  A    between atoms: _170  and  _173
REMARK   76  A    between atoms: _173  and  _174
REMARK   77  A    between atoms: _176  and  _178
REMARK   78  A    between atoms: _178  and  _179
REMARK   79  A    between atoms: _178  and  _181
REMARK   80  A    between atoms: _181  and  _182
REMARK   81  A    between atoms: _185  and  _187
REMARK   82  A    between atoms: _187  and  _188
REMARK   83  A    between atoms: _187  and  _190
REMARK   84  A    between atoms: _190  and  _191
REMARK   85  A    between atoms: _194  and  _196
REMARK   86  A    between atoms: _196  and  _197
REMARK   87  A    between atoms: _200  and  _202
REMARK   88  A    between atoms: _202  and  _203
REMARK   89  A    between atoms: _202  and  _205
REMARK   90  A    between atoms: _208  and  _210
REMARK   91  A    between atoms: _210  and  _211
REMARK   92  A    between atoms: _210  and  _213
REMARK   93  A    between atoms: _213  and  _214
REMARK   94  A    between atoms: _216  and  _218
REMARK   95  A    between atoms: _218  and  _219
REMARK   96  A    between atoms: _218  and  _221
REMARK   97  A    between atoms: _221  and  _222
REMARK   98  A    between atoms: _227  and  _228
REMARK   99  A    between atoms: _230  and  _232
REMARK  100  A    between atoms: _232  and  _233
REMARK  101  A    between atoms: _232  and  _235
REMARK  102  A    between atoms: _235  and  _236
REMARK  103  A    between atoms: _238  and  _240
REMARK  104  A    between atoms: _240  and  _241
REMARK  105  A    between atoms: _240  and  _243
REMARK  106  A    between atoms: _243  and  _244
REMARK  107  A    between atoms: _244  and  _245
REMARK  108  A    between atoms: _247  and  _249
REMARK  109  A    between atoms: _249  and  _250
REMARK  110  A    between atoms: _249  and  _252
REMARK  111  A    between atoms: _255  and  _257
REMARK  112  A    between atoms: _257  and  _258
REMARK  113  A    between atoms: _257  and  _260
REMARK  114  A    between atoms: _260  and  _261
REMARK  115  A    between atoms: _261  and  _262
REMARK  116  A    between atoms: _262  and  _263
REMARK  117  A    between atoms: _263  and  _264
REMARK  118  A    between atoms: _268  and  _270
REMARK  119  A    between atoms: _270  and  _271
REMARK  120  A    between atoms: _270  and  _273
REMARK  121  A    between atoms: _276  and  _278
REMARK  122  A    between atoms: _278  and  _279
REMARK  123  A    between atoms: _278  and  _281
REMARK  124  A    between atoms: _281  and  _282
REMARK  125  A    between atoms: _285  and  _287
REMARK  126  A    between atoms: _287  and  _288
REMARK  127  A    between atoms: _287  and  _290
REMARK  128  A    between atoms: _290  and  _291
REMARK  129  A    between atoms: _294  and  _296
REMARK  130  A    between atoms: _296  and  _297
REMARK  131  A    between atoms: _296  and  _299
REMARK  132  A    between atoms: _299  and  _300
REMARK  133  A    between atoms: _302  and  _304
REMARK  134  A    between atoms: _304  and  _305
REMARK  135  A    between atoms: _307  and  _309
REMARK  136  A    between atoms: _309  and  _310
REMARK  137  A    between atoms: _309  and  _312
REMARK  138  A    between atoms: _312  and  _313
REMARK  139  A    between atoms: _313  and  _314
REMARK  140  A    between atoms: _317  and  _319
REMARK  141  A    between atoms: _319  and  _320
REMARK  142  A    between atoms: _319  and  _322
REMARK  143  A    between atoms: _322  and  _323
REMARK  144  A    between atoms: _326  and  _328
REMARK  145  A    between atoms: _328  and  _329
REMARK  146  A    between atoms: _328  and  _331
REMARK  147  A    between atoms: _331  and  _332
REMARK  148  A    between atoms: _335  and  _337
REMARK  149  A    between atoms: _337  and  _338
REMARK  150  A    between atoms: _341  and  _343
REMARK  151  A    between atoms: _343  and  _344
REMARK  152  A    between atoms: _347  and  _349
REMARK  153  A    between atoms: _349  and  _350
REMARK  154  A    between atoms: _349  and  _352
REMARK  155  A    between atoms: _352  and  _353
REMARK  156  A    between atoms: _356  and  _358
REMARK  157  A    between atoms: _358  and  _359
REMARK  158  A    between atoms: _358  and  _361
REMARK  159  A    between atoms: _361  and  _362
REMARK  160  A    between atoms: _365  and  _367
REMARK  161  A    between atoms: _367  and  _368
REMARK  162  A    between atoms: _367  and  _370
REMARK  163  A    between atoms: _370  and  _371
REMARK  164  A    between atoms: _376  and  _377
REMARK  165  A    between atoms: _379  and  _381
REMARK  166  A    between atoms: _381  and  _382
REMARK  167  A    between atoms: _381  and  _384
REMARK  168  A    between atoms: _384  and  _385
REMARK  169  A    between atoms: _387  and  _389
REMARK  170  A    between atoms: _389  and  _390
REMARK  171  A    between atoms: _389  and  _392
REMARK  172  A    between atoms: _392  and  _393
REMARK  173  A    between atoms: _396  and  _398
REMARK  174  A    between atoms: _398  and  _399
REMARK  175  A    between atoms: _398  and  _401
REMARK  176  A    between atoms: _401  and  _402
REMARK  177  A    between atoms: _405  and  _407
REMARK  178  A    between atoms: _407  and  _408
REMARK  179  A    between atoms: _411  and  _413
REMARK  180  A    between atoms: _413  and  _414
REMARK  181  A    between atoms: _413  and  _416
REMARK  182  A    between atoms: _419  and  _421
REMARK  183  A    between atoms: _421  and  _422
REMARK  184  A    between atoms: _421  and  _424
REMARK  185  A    between atoms: _424  and  _425
REMARK  186  A    between atoms: _430  and  _431
REMARK  187  A    between atoms: _433  and  _435
REMARK  188  A    between atoms: _435  and  _436
REMARK  189  A    between atoms: _435  and  _438
REMARK  190  A    between atoms: _438  and  _439
REMARK  191  A    between atoms: _441  and  _443
REMARK  192  A    between atoms: _443  and  _444
REMARK  193  A    between atoms: _443  and  _446
REMARK  194  A    between atoms: _446  and  _447
REMARK  195  A    between atoms: _452  and  _453
REMARK  196  A    between atoms: _455  and  _457
REMARK  197  A    between atoms: _457  and  _458
REMARK  198  A    between atoms: _457  and  _460
REMARK  199  A    between atoms: _460  and  _461
REMARK                            x       y       z     vdW  Elec       q    Type
REMARK                         _______ _______ _______ _____ _____    ______ ____
ROOT
ATOM      1  O   HOH     1      29.046   1.553 -24.451  0.00  0.00    +0.000 OA
ENDROOT
TORSDOF 0
REMARK  Name = ../refined-set-2016/3neo/3neo_pocket.pdb
REMARK  199 active torsions:
REMARK  status: ('A' for Active; 'I' for Inactive)
REMARK    1  A    between atoms: _1  and  _3
REMARK    2  A    between atoms: _3  and  _4
REMARK    3  A    between atoms: _3  and  _6
REMARK    4  A    between atoms: _6  and  _7
REMARK    5  A    between atoms: _7  and  _8
REMARK    6  A    between atoms: _10  and  _12
REMARK    7  A    between atoms: _12  and  _13
REMARK    8  A    between atoms: _12  and  _15
REMARK    9  A    between atoms: _18  and  _20
REMARK   10  A    between atoms: _20  and  _21
REMARK   11  A    between atoms: _20  and  _23
REMARK   12  A    between atoms: _23  and  _24
REMARK   13  A    between atoms: _24  and  _25
REMARK   14  A    between atoms: _25  and  _26
REMARK   15  A    between atoms: _26  and  _27
REMARK   16  A    between atoms: _31  and  _33
REMARK   17  A    between atoms: _33  and  _34
REMARK   18  A    between atoms: _33  and  _36
REMARK   19  A    between atoms: _39  and  _41
REMARK   20  A    between atoms: _41  and  _42
REMARK   21  A    between atoms: _41  and  _44
REMARK   22  A    between atoms: _44  and  _45
REMARK   23  A    between atoms: _48  and  _50
REMARK   24  A    between atoms: _50  and  _51
REMARK   25  A    between atoms: _50  and  _53
REMARK   26  A    between atoms: _53  and  _54
REMARK   27  A    between atoms: _57  and  _59
REMARK   28  A    between atoms: _59  and  _60
REMARK   29  A    between atoms: _63  and  _65
REMARK   30  A    between atoms: _65  and  _66
REMARK   31  A    between atoms: _65  and  _68
REMARK   32  A    between atoms: _68  and  _69
REMARK   33  A    between atoms: _71  and  _73
REMARK   34  A    between atoms: _73  and  _74
REMARK   35  A    between atoms: _76  and  _78
REMARK   36  A    between atoms: _78  and  _79
REMARK   37  A    between atoms: _78  and  _81
REMARK   38  A    between atoms: _81  and  _82
REMARK   39  A    between atoms: _82  and  _83
REMARK   40  A    between atoms: _86  and  _88
REMARK   41  A    between atoms: _88  and  _89
REMARK   42  A    between atoms: _88  and  _91
REMARK   43  A    between atoms: _91  and  _92
REMARK   44  A    between atoms: _95  and  _97
REMARK   45  A    between atoms: _97  and  _98
REMARK   46  A    between atoms: _97  and  _100
REMARK   47  A    between atoms: _100  and  _101
REMARK   48  A    between atoms: _106  and  _108
REMARK   49  A    between atoms: _108  and  _109
REMARK   50  A    between atoms: _108  and  _111
REMARK   51  A    between atoms: _111  and  _112
REMARK   52  A    between atoms: _115  and  _117
REMARK   53  A    between atoms: _117  and  _118
REMARK   54  A    between atoms: _117  and  _120
REMARK   55  A    between atoms: _120  and  _121
REMARK   56  A    between atoms: _124  and  _126
REMARK   57  A    between atoms: _126  and  _127
REMARK   58  A    between atoms: _130  and  _132
REMARK   59  A    between atoms: _132  and  _133
REMARK   60  A    between atoms: _136  and  _138
REMARK   61  A    between atoms: _138  and  _139
REMARK   62  A    between atoms: _138  and  _141
REMARK   63  A    between atoms: _141  and  _142
REMARK   64  A    between atoms: _145  and  _147
REMARK   65  A    between atoms: _147  and  _148
REMARK   66  A    between atoms: _147  and  _150
REMARK   67  A    between atoms: _150  and  _151
REMARK   68  A    between atoms: _154  and  _156
REMARK   69  A    between atoms: _156  and  _157
REMARK   70  A    between atoms: _156  and  _159
REMARK   71  A    between atoms: _159  and  _160
REMARK   72  A    between atoms: _165  and  _166
REMARK   73  A    between atoms: _168  and  _170
REMARK   74  A    between atoms: _170  and  _171
REMARK   75  A    between atoms: _170  and  _173
REMARK   76  A    between atoms: _173  and  _174
REMARK   77  A    between atoms: _176  and  _178
REMARK   78  A    between atoms: _178  and  _179
REMARK   79  A    between atoms: _178  and  _181
REMARK   80  A    between atoms: _181  and  _182
REMARK   81  A    between atoms: _185  and  _187
REMARK   82  A    between atoms: _187  and  _188
REMARK   83  A    between atoms: _187  and  _190
REMARK   84  A    between atoms: _190  and  _191
REMARK   85  A    between atoms: _194  and  _196
REMARK   86  A    between atoms: _196  and  _197
REMARK   87  A    between atoms: _200  and  _202
REMARK   88  A    between atoms: _202  and  _203
REMARK   89  A    between atoms: _202  and  _205
REMARK   90  A    between atoms: _208  and  _210
REMARK   91  A    between atoms: _210  and  _211
REMARK   92  A    between atoms: _210  and  _213
REMARK   93  A    between atoms: _213  and  _214
REMARK   94  A    between atoms: _216  and  _218
REMARK   95  A    between atoms: _218  and  _219
REMARK   96  A    between atoms: _218  and  _221
REMARK   97  A    between atoms: _221  and  _222
REMARK   98  A    between atoms: _227  and  _228
REMARK   99  A    between atoms: _230  and  _232
REMARK  100  A    between atoms: _232  and  _233
REMARK  101  A    between atoms: _232  and  _235
REMARK  102  A    between atoms: _235  and  _236
REMARK  103  A    between atoms: _238  and  _240
REMARK  104  A    between atoms: _240  and  _241
REMARK  105  A    between atoms: _240  and  _243
REMARK  106  A    between atoms: _243  and  _244
REMARK  107  A    between atoms: _244  and  _245
REMARK  108  A    between atoms: _247  and  _249
REMARK  109  A    between atoms: _249  and  _250
REMARK  110  A    between atoms: _249  and  _252
REMARK  111  A    between atoms: _255  and  _257
REMARK  112  A    between atoms: _257  and  _258
REMARK  113  A    between atoms: _257  and  _260
REMARK  114  A    between atoms: _260  and  _261
REMARK  115  A    between atoms: _261  and  _262
REMARK  116  A    between atoms: _262  and  _263
REMARK  117  A    between atoms: _263  and  _264
REMARK  118  A    between atoms: _268  and  _270
REMARK  119  A    between atoms: _270  and  _271
REMARK  120  A    between atoms: _270  and  _273
REMARK  121  A    between atoms: _276  and  _278
REMARK  122  A    between atoms: _278  and  _279
REMARK  123  A    between atoms: _278  and  _281
REMARK  124  A    between atoms: _281  and  _282
REMARK  125  A    between atoms: _285  and  _287
REMARK  126  A    between atoms: _287  and  _288
REMARK  127  A    between atoms: _287  and  _290
REMARK  128  A    between atoms: _290  and  _291
REMARK  129  A    between atoms: _294  and  _296
REMARK  130  A    between atoms: _296  and  _297
REMARK  131  A    between atoms: _296  and  _299
REMARK  132  A    between atoms: _299  and  _300
REMARK  133  A    between atoms: _302  and  _304
REMARK  134  A    between atoms: _304  and  _305
REMARK  135  A    between atoms: _307  and  _309
REMARK  136  A    between atoms: _309  and  _310
REMARK  137  A    between atoms: _309  and  _312
REMARK  138  A    between atoms: _312  and  _313
REMARK  139  A    between atoms: _313  and  _314
REMARK  140  A    between atoms: _317  and  _319
REMARK  141  A    between atoms: _319  and  _320
REMARK  142  A    between atoms: _319  and  _322
REMARK  143  A    between atoms: _322  and  _323
REMARK  144  A    between atoms: _326  and  _328
REMARK  145  A    between atoms: _328  and  _329
REMARK  146  A    between atoms: _328  and  _331
REMARK  147  A    between atoms: _331  and  _332
REMARK  148  A    between atoms: _335  and  _337
REMARK  149  A    between atoms: _337  and  _338
REMARK  150  A    between atoms: _341  and  _343
REMARK  151  A    between atoms: _343  and  _344
REMARK  152  A    between atoms: _347  and  _349
REMARK  153  A    between atoms: _349  and  _350
REMARK  154  A    between atoms: _349  and  _352
REMARK  155  A    between atoms: _352  and  _353
REMARK  156  A    between atoms: _356  and  _358
REMARK  157  A    between atoms: _358  and  _359
REMARK  158  A    between atoms: _358  and  _361
REMARK  159  A    between atoms: _361  and  _362
REMARK  160  A    between atoms: _365  and  _367
REMARK  161  A    between atoms: _367  and  _368
REMARK  162  A    between atoms: _367  and  _370
REMARK  163  A    between atoms: _370  and  _371
REMARK  164  A    between atoms: _376  and  _377
REMARK  165  A    between atoms: _379  and  _381
REMARK  166  A    between atoms: _381  and  _382
REMARK  167  A    between atoms: _381  and  _384
REMARK  168  A    between atoms: _384  and  _385
REMARK  169  A    between atoms: _387  and  _389
REMARK  170  A    between atoms: _389  and  _390
REMARK  171  A    between atoms: _389  and  _392
REMARK  172  A    between atoms: _392  and  _393
REMARK  173  A    between atoms: _396  and  _398
REMARK  174  A    between atoms: _398  and  _399
REMARK  175  A    between atoms: _398  and  _401
REMARK  176  A    between atoms: _401  and  _402
REMARK  177  A    between atoms: _405  and  _407
REMARK  178  A    between atoms: _407  and  _408
REMARK  179  A    between atoms: _411  and  _413
REMARK  180  A    between atoms: _413  and  _414
REMARK  181  A    between atoms: _413  and  _416
REMARK  182  A    between atoms: _419  and  _421
REMARK  183  A    between atoms: _421  and  _422
REMARK  184  A    between atoms: _421  and  _424
REMARK  185  A    between atoms: _424  and  _425
REMARK  186  A    between atoms: _430  and  _431
REMARK  187  A    between atoms: _433  and  _435
REMARK  188  A    between atoms: _435  and  _436
REMARK  189  A    between atoms: _435  and  _438
REMARK  190  A    between atoms: _438  and  _439
REMARK  191  A    between atoms: _441  and  _443
REMARK  192  A    between atoms: _443  and  _444
REMARK  193  A    between atoms: _443  and  _446
REMARK  194  A    between atoms: _446  and  _447
REMARK  195  A    between atoms: _452  and  _453
REMARK  196  A    between atoms: _455  and  _457
REMARK  197  A    between atoms: _457  and  _458
REMARK  198  A    between atoms: _457  and  _460
REMARK  199  A    between atoms: _460  and  _461
REMARK                            x       y       z     vdW  Elec       q    Type
REMARK                         _______ _______ _______ _____ _____    ______ ____
ROOT
ATOM      1  O   HOH     1      15.721  -1.847 -14.859  0.00  0.00    +0.000 OA
ENDROOT
TORSDOF 0
REMARK  Name = ../refined-set-2016/3neo/3neo_pocket.pdb
REMARK  199 active torsions:
REMARK  status: ('A' for Active; 'I' for Inactive)
REMARK    1  A    between atoms: _1  and  _3
REMARK    2  A    between atoms: _3  and  _4
REMARK    3  A    between atoms: _3  and  _6
REMARK    4  A    between atoms: _6  and  _7
REMARK    5  A    between atoms: _7  and  _8
REMARK    6  A    between atoms: _10  and  _12
REMARK    7  A    between atoms: _12  and  _13
REMARK    8  A    between atoms: _12  and  _15
REMARK    9  A    between atoms: _18  and  _20
REMARK   10  A    between atoms: _20  and  _21
REMARK   11  A    between atoms: _20  and  _23
REMARK   12  A    between atoms: _23  and  _24
REMARK   13  A    between atoms: _24  and  _25
REMARK   14  A    between atoms: _25  and  _26
REMARK   15  A    between atoms: _26  and  _27
REMARK   16  A    between atoms: _31  and  _33
REMARK   17  A    between atoms: _33  and  _34
REMARK   18  A    between atoms: _33  and  _36
REMARK   19  A    between atoms: _39  and  _41
REMARK   20  A    between atoms: _41  and  _42
REMARK   21  A    between atoms: _41  and  _44
REMARK   22  A    between atoms: _44  and  _45
REMARK   23  A    between atoms: _48  and  _50
REMARK   24  A    between atoms: _50  and  _51
REMARK   25  A    between atoms: _50  and  _53
REMARK   26  A    between atoms: _53  and  _54
REMARK   27  A    between atoms: _57  and  _59
REMARK   28  A    between atoms: _59  and  _60
REMARK   29  A    between atoms: _63  and  _65
REMARK   30  A    between atoms: _65  and  _66
REMARK   31  A    between atoms: _65  and  _68
REMARK   32  A    between atoms: _68  and  _69
REMARK   33  A    between atoms: _71  and  _73
REMARK   34  A    between atoms: _73  and  _74
REMARK   35  A    between atoms: _76  and  _78
REMARK   36  A    between atoms: _78  and  _79
REMARK   37  A    between atoms: _78  and  _81
REMARK   38  A    between atoms: _81  and  _82
REMARK   39  A    between atoms: _82  and  _83
REMARK   40  A    between atoms: _86  and  _88
REMARK   41  A    between atoms: _88  and  _89
REMARK   42  A    between atoms: _88  and  _91
REMARK   43  A    between atoms: _91  and  _92
REMARK   44  A    between atoms: _95  and  _97
REMARK   45  A    between atoms: _97  and  _98
REMARK   46  A    between atoms: _97  and  _100
REMARK   47  A    between atoms: _100  and  _101
REMARK   48  A    between atoms: _106  and  _108
REMARK   49  A    between atoms: _108  and  _109
REMARK   50  A    between atoms: _108  and  _111
REMARK   51  A    between atoms: _111  and  _112
REMARK   52  A    between atoms: _115  and  _117
REMARK   53  A    between atoms: _117  and  _118
REMARK   54  A    between atoms: _117  and  _120
REMARK   55  A    between atoms: _120  and  _121
REMARK   56  A    between atoms: _124  and  _126
REMARK   57  A    between atoms: _126  and  _127
REMARK   58  A    between atoms: _130  and  _132
REMARK   59  A    between atoms: _132  and  _133
REMARK   60  A    between atoms: _136  and  _138
REMARK   61  A    between atoms: _138  and  _139
REMARK   62  A    between atoms: _138  and  _141
REMARK   63  A    between atoms: _141  and  _142
REMARK   64  A    between atoms: _145  and  _147
REMARK   65  A    between atoms: _147  and  _148
REMARK   66  A    between atoms: _147  and  _150
REMARK   67  A    between atoms: _150  and  _151
REMARK   68  A    between atoms: _154  and  _156
REMARK   69  A    between atoms: _156  and  _157
REMARK   70  A    between atoms: _156  and  _159
REMARK   71  A    between atoms: _159  and  _160
REMARK   72  A    between atoms: _165  and  _166
REMARK   73  A    between atoms: _168  and  _170
REMARK   74  A    between atoms: _170  and  _171
REMARK   75  A    between atoms: _170  and  _173
REMARK   76  A    between atoms: _173  and  _174
REMARK   77  A    between atoms: _176  and  _178
REMARK   78  A    between atoms: _178  and  _179
REMARK   79  A    between atoms: _178  and  _181
REMARK   80  A    between atoms: _181  and  _182
REMARK   81  A    between atoms: _185  and  _187
REMARK   82  A    between atoms: _187  and  _188
REMARK   83  A    between atoms: _187  and  _190
REMARK   84  A    between atoms: _190  and  _191
REMARK   85  A    between atoms: _194  and  _196
REMARK   86  A    between atoms: _196  and  _197
REMARK   87  A    between atoms: _200  and  _202
REMARK   88  A    between atoms: _202  and  _203
REMARK   89  A    between atoms: _202  and  _205
REMARK   90  A    between atoms: _208  and  _210
REMARK   91  A    between atoms: _210  and  _211
REMARK   92  A    between atoms: _210  and  _213
REMARK   93  A    between atoms: _213  and  _214
REMARK   94  A    between atoms: _216  and  _218
REMARK   95  A    between atoms: _218  and  _219
REMARK   96  A    between atoms: _218  and  _221
REMARK   97  A    between atoms: _221  and  _222
REMARK   98  A    between atoms: _227  and  _228
REMARK   99  A    between atoms: _230  and  _232
REMARK  100  A    between atoms: _232  and  _233
REMARK  101  A    between atoms: _232  and  _235
REMARK  102  A    between atoms: _235  and  _236
REMARK  103  A    between atoms: _238  and  _240
REMARK  104  A    between atoms: _240  and  _241
REMARK  105  A    between atoms: _240  and  _243
REMARK  106  A    between atoms: _243  and  _244
REMARK  107  A    between atoms: _244  and  _245
REMARK  108  A    between atoms: _247  and  _249
REMARK  109  A    between atoms: _249  and  _250
REMARK  110  A    between atoms: _249  and  _252
REMARK  111  A    between atoms: _255  and  _257
REMARK  112  A    between atoms: _257  and  _258
REMARK  113  A    between atoms: _257  and  _260
REMARK  114  A    between atoms: _260  and  _261
REMARK  115  A    between atoms: _261  and  _262
REMARK  116  A    between atoms: _262  and  _263
REMARK  117  A    between atoms: _263  and  _264
REMARK  118  A    between atoms: _268  and  _270
REMARK  119  A    between atoms: _270  and  _271
REMARK  120  A    between atoms: _270  and  _273
REMARK  121  A    between atoms: _276  and  _278
REMARK  122  A    between atoms: _278  and  _279
REMARK  123  A    between atoms: _278  and  _281
REMARK  124  A    between atoms: _281  and  _282
REMARK  125  A    between atoms: _285  and  _287
REMARK  126  A    between atoms: _287  and  _288
REMARK  127  A    between atoms: _287  and  _290
REMARK  128  A    between atoms: _290  and  _291
REMARK  129  A    between atoms: _294  and  _296
REMARK  130  A    between atoms: _296  and  _297
REMARK  131  A    between atoms: _296  and  _299
REMARK  132  A    between atoms: _299  and  _300
REMARK  133  A    between atoms: _302  and  _304
REMARK  134  A    between atoms: _304  and  _305
REMARK  135  A    between atoms: _307  and  _309
REMARK  136  A    between atoms: _309  and  _310
REMARK  137  A    between atoms: _309  and  _312
REMARK  138  A    between atoms: _312  and  _313
REMARK  139  A    between atoms: _313  and  _314
REMARK  140  A    between atoms: _317  and  _319
REMARK  141  A    between atoms: _319  and  _320
REMARK  142  A    between atoms: _319  and  _322
REMARK  143  A    between atoms: _322  and  _323
REMARK  144  A    between atoms: _326  and  _328
REMARK  145  A    between atoms: _328  and  _329
REMARK  146  A    between atoms: _328  and  _331
REMARK  147  A    between atoms: _331  and  _332
REMARK  148  A    between atoms: _335  and  _337
REMARK  149  A    between atoms: _337  and  _338
REMARK  150  A    between atoms: _341  and  _343
REMARK  151  A    between atoms: _343  and  _344
REMARK  152  A    between atoms: _347  and  _349
REMARK  153  A    between atoms: _349  and  _350
REMARK  154  A    between atoms: _349  and  _352
REMARK  155  A    between atoms: _352  and  _353
REMARK  156  A    between atoms: _356  and  _358
REMARK  157  A    between atoms: _358  and  _359
REMARK  158  A    between atoms: _358  and  _361
REMARK  159  A    between atoms: _361  and  _362
REMARK  160  A    between atoms: _365  and  _367
REMARK  161  A    between atoms: _367  and  _368
REMARK  162  A    between atoms: _367  and  _370
REMARK  163  A    between atoms: _370  and  _371
REMARK  164  A    between atoms: _376  and  _377
REMARK  165  A    between atoms: _379  and  _381
REMARK  166  A    between atoms: _381  and  _382
REMARK  167  A    between atoms: _381  and  _384
REMARK  168  A    between atoms: _384  and  _385
REMARK  169  A    between atoms: _387  and  _389
REMARK  170  A    between atoms: _389  and  _390
REMARK  171  A    between atoms: _389  and  _392
REMARK  172  A    between atoms: _392  and  _393
REMARK  173  A    between atoms: _396  and  _398
REMARK  174  A    between atoms: _398  and  _399
REMARK  175  A    between atoms: _398  and  _401
REMARK  176  A    between atoms: _401  and  _402
REMARK  177  A    between atoms: _405  and  _407
REMARK  178  A    between atoms: _407  and  _408
REMARK  179  A    between atoms: _411  and  _413
REMARK  180  A    between atoms: _413  and  _414
REMARK  181  A    between atoms: _413  and  _416
REMARK  182  A    between atoms: _419  and  _421
REMARK  183  A    between atoms: _421  and  _422
REMARK  184  A    between atoms: _421  and  _424
REMARK  185  A    between atoms: _424  and  _425
REMARK  186  A    between atoms: _430  and  _431
REMARK  187  A    between atoms: _433  and  _435
REMARK  188  A    between atoms: _435  and  _436
REMARK  189  A    between atoms: _435  and  _438
REMARK  190  A    between atoms: _438  and  _439
REMARK  191  A    between atoms: _441  and  _443
REMARK  192  A    between atoms: _443  and  _444
REMARK  193  A    between atoms: _443  and  _446
REMARK  194  A    between atoms: _446  and  _447
REMARK  195  A    between atoms: _452  and  _453
REMARK  196  A    between atoms: _455  and  _457
REMARK  197  A    between atoms: _457  and  _458
REMARK  198  A    between atoms: _457  and  _460
REMARK  199  A    between atoms: _460  and  _461
REMARK                            x       y       z     vdW  Elec       q    Type
REMARK                         _______ _______ _______ _____ _____    ______ ____
ROOT
ATOM      1  O   HOH     1      17.686  -1.970 -16.486  0.00  0.00    +0.000 OA
ENDROOT
TORSDOF 0
