REMARK  Name = ../refined-set-2016/3hub/3hub_pocket.pdb
REMARK  195 active torsions:
REMARK  status: ('A' for Active; 'I' for Inactive)
REMARK    1  A    between atoms: _1  and  _3
REMARK    2  A    between atoms: _3  and  _4
REMARK    3  A    between atoms: _3  and  _6
REMARK    4  A    between atoms: _6  and  _7
REMARK    5  A    between atoms: _10  and  _11
REMARK    6  A    between atoms: _16  and  _18
REMARK    7  A    between atoms: _18  and  _19
REMARK    8  A    between atoms: _18  and  _21
REMARK    9  A    between atoms: _24  and  _26
REMARK   10  A    between atoms: _26  and  _27
REMARK   11  A    between atoms: _29  and  _31
REMARK   12  A    between atoms: _31  and  _32
REMARK   13  A    between atoms: _31  and  _34
REMARK   14  A    between atoms: _34  and  _35
REMARK   15  A    between atoms: _37  and  _39
REMARK   16  A    between atoms: _39  and  _40
REMARK   17  A    between atoms: _42  and  _44
REMARK   18  A    between atoms: _44  and  _45
REMARK   19  A    between atoms: _48  and  _50
REMARK   20  A    between atoms: _50  and  _51
REMARK   21  A    between atoms: _50  and  _53
REMARK   22  A    between atoms: _53  and  _54
REMARK   23  A    between atoms: _59  and  _60
REMARK   24  A    between atoms: _62  and  _64
REMARK   25  A    between atoms: _64  and  _65
REMARK   26  A    between atoms: _67  and  _69
REMARK   27  A    between atoms: _69  and  _70
REMARK   28  A    between atoms: _69  and  _72
REMARK   29  A    between atoms: _72  and  _73
REMARK   30  A    between atoms: _75  and  _77
REMARK   31  A    between atoms: _77  and  _78
REMARK   32  A    between atoms: _77  and  _80
REMARK   33  A    between atoms: _83  and  _85
REMARK   34  A    between atoms: _85  and  _86
REMARK   35  A    between atoms: _85  and  _88
REMARK   36  A    between atoms: _90  and  _92
REMARK   37  A    between atoms: _92  and  _93
REMARK   38  A    between atoms: _96  and  _98
REMARK   39  A    between atoms: _98  and  _99
REMARK   40  A    between atoms: _102  and  _104
REMARK   41  A    between atoms: _104  and  _105
REMARK   42  A    between atoms: _104  and  _107
REMARK   43  A    between atoms: _107  and  _108
REMARK   44  A    between atoms: _108  and  _109
REMARK   45  A    between atoms: _109  and  _110
REMARK   46  A    between atoms: _119  and  _121
REMARK   47  A    between atoms: _121  and  _122
REMARK   48  A    between atoms: _121  and  _124
REMARK   49  A    between atoms: _127  and  _129
REMARK   50  A    between atoms: _129  and  _130
REMARK   51  A    between atoms: _133  and  _135
REMARK   52  A    between atoms: _135  and  _136
REMARK   53  A    between atoms: _135  and  _138
REMARK   54  A    between atoms: _141  and  _143
REMARK   55  A    between atoms: _143  and  _144
REMARK   56  A    between atoms: _143  and  _146
REMARK   57  A    between atoms: _146  and  _147
REMARK   58  A    between atoms: _147  and  _148
REMARK   59  A    between atoms: _148  and  _149
REMARK   60  A    between atoms: _149  and  _150
REMARK   61  A    between atoms: _154  and  _156
REMARK   62  A    between atoms: _156  and  _157
REMARK   63  A    between atoms: _156  and  _159
REMARK   64  A    between atoms: _159  and  _160
REMARK   65  A    between atoms: _160  and  _161
REMARK   66  A    between atoms: _161  and  _162
REMARK   67  A    between atoms: _162  and  _163
REMARK   68  A    between atoms: _167  and  _169
REMARK   69  A    between atoms: _169  and  _170
REMARK   70  A    between atoms: _169  and  _172
REMARK   71  A    between atoms: _172  and  _173
REMARK   72  A    between atoms: _176  and  _178
REMARK   73  A    between atoms: _178  and  _179
REMARK   74  A    between atoms: _178  and  _181
REMARK   75  A    between atoms: _181  and  _182
REMARK   76  A    between atoms: _182  and  _183
REMARK   77  A    between atoms: _186  and  _188
REMARK   78  A    between atoms: _188  and  _189
REMARK   79  A    between atoms: _188  and  _191
REMARK   80  A    between atoms: _191  and  _192
REMARK   81  A    between atoms: _195  and  _197
REMARK   82  A    between atoms: _197  and  _198
REMARK   83  A    between atoms: _197  and  _200
REMARK   84  A    between atoms: _200  and  _201
REMARK   85  A    between atoms: _204  and  _206
REMARK   86  A    between atoms: _206  and  _207
REMARK   87  A    between atoms: _209  and  _211
REMARK   88  A    between atoms: _211  and  _212
REMARK   89  A    between atoms: _211  and  _214
REMARK   90  A    between atoms: _214  and  _215
REMARK   91  A    between atoms: _218  and  _220
REMARK   92  A    between atoms: _220  and  _221
REMARK   93  A    between atoms: _220  and  _223
REMARK   94  A    between atoms: _223  and  _224
REMARK   95  A    between atoms: _227  and  _229
REMARK   96  A    between atoms: _229  and  _230
REMARK   97  A    between atoms: _229  and  _232
REMARK   98  A    between atoms: _232  and  _233
REMARK   99  A    between atoms: _236  and  _238
REMARK  100  A    between atoms: _238  and  _239
REMARK  101  A    between atoms: _238  and  _241
REMARK  102  A    between atoms: _244  and  _246
REMARK  103  A    between atoms: _246  and  _247
REMARK  104  A    between atoms: _246  and  _249
REMARK  105  A    between atoms: _249  and  _250
REMARK  106  A    between atoms: _255  and  _256
REMARK  107  A    between atoms: _258  and  _260
REMARK  108  A    between atoms: _260  and  _261
REMARK  109  A    between atoms: _260  and  _263
REMARK  110  A    between atoms: _263  and  _264
REMARK  111  A    between atoms: _267  and  _269
REMARK  112  A    between atoms: _269  and  _270
REMARK  113  A    between atoms: _269  and  _272
REMARK  114  A    between atoms: _275  and  _277
REMARK  115  A    between atoms: _277  and  _278
REMARK  116  A    between atoms: _277  and  _280
REMARK  117  A    between atoms: _280  and  _281
REMARK  118  A    between atoms: _284  and  _286
REMARK  119  A    between atoms: _286  and  _287
REMARK  120  A    between atoms: _286  and  _289
REMARK  121  A    between atoms: _289  and  _290
REMARK  122  A    between atoms: _295  and  _297
REMARK  123  A    between atoms: _297  and  _298
REMARK  124  A    between atoms: _297  and  _300
REMARK  125  A    between atoms: _300  and  _301
REMARK  126  A    between atoms: _304  and  _306
REMARK  127  A    between atoms: _306  and  _307
REMARK  128  A    between atoms: _306  and  _309
REMARK  129  A    between atoms: _309  and  _310
REMARK  130  A    between atoms: _310  and  _311
REMARK  131  A    between atoms: _313  and  _315
REMARK  132  A    between atoms: _315  and  _316
REMARK  133  A    between atoms: _318  and  _320
REMARK  134  A    between atoms: _320  and  _321
REMARK  135  A    between atoms: _324  and  _326
REMARK  136  A    between atoms: _326  and  _327
REMARK  137  A    between atoms: _326  and  _329
REMARK  138  A    between atoms: _329  and  _330
REMARK  139  A    between atoms: _333  and  _335
REMARK  140  A    between atoms: _335  and  _336
REMARK  141  A    between atoms: _335  and  _338
REMARK  142  A    between atoms: _338  and  _339
REMARK  143  A    between atoms: _342  and  _344
REMARK  144  A    between atoms: _344  and  _345
REMARK  145  A    between atoms: _344  and  _347
REMARK  146  A    between atoms: _347  and  _348
REMARK  147  A    between atoms: _353  and  _355
REMARK  148  A    between atoms: _355  and  _356
REMARK  149  A    between atoms: _355  and  _358
REMARK  150  A    between atoms: _358  and  _359
REMARK  151  A    between atoms: _365  and  _366
REMARK  152  A    between atoms: _371  and  _373
REMARK  153  A    between atoms: _373  and  _374
REMARK  154  A    between atoms: _373  and  _376
REMARK  155  A    between atoms: _376  and  _377
REMARK  156  A    between atoms: _379  and  _381
REMARK  157  A    between atoms: _381  and  _382
REMARK  158  A    between atoms: _381  and  _384
REMARK  159  A    between atoms: _384  and  _385
REMARK  160  A    between atoms: _390  and  _392
REMARK  161  A    between atoms: _392  and  _393
REMARK  162  A    between atoms: _392  and  _395
REMARK  163  A    between atoms: _395  and  _396
REMARK  164  A    between atoms: _399  and  _401
REMARK  165  A    between atoms: _401  and  _402
REMARK  166  A    between atoms: _405  and  _407
REMARK  167  A    between atoms: _407  and  _408
REMARK  168  A    between atoms: _407  and  _410
REMARK  169  A    between atoms: _413  and  _415
REMARK  170  A    between atoms: _415  and  _416
REMARK  171  A    between atoms: _415  and  _418
REMARK  172  A    between atoms: _418  and  _419
REMARK  173  A    between atoms: _424  and  _426
REMARK  174  A    between atoms: _426  and  _427
REMARK  175  A    between atoms: _426  and  _429
REMARK  176  A    between atoms: _429  and  _430
REMARK  177  A    between atoms: _430  and  _431
REMARK  178  A    between atoms: _431  and  _432
REMARK  179  A    between atoms: _432  and  _433
REMARK  180  A    between atoms: _437  and  _439
REMARK  181  A    between atoms: _439  and  _440
REMARK  182  A    between atoms: _439  and  _442
REMARK  183  A    between atoms: _442  and  _443
REMARK  184  A    between atoms: _446  and  _448
REMARK  185  A    between atoms: _448  and  _449
REMARK  186  A    between atoms: _448  and  _451
REMARK  187  A    between atoms: _451  and  _452
REMARK  188  A    between atoms: _455  and  _457
REMARK  189  A    between atoms: _457  and  _458
REMARK  190  A    between atoms: _457  and  _460
REMARK  191  A    between atoms: _460  and  _461
REMARK  192  A    between atoms: _464  and  _466
REMARK  193  A    between atoms: _466  and  _467
REMARK  194  A    between atoms: _466  and  _469
REMARK  195  A    between atoms: _469  and  _470
REMARK                            x       y       z     vdW  Elec       q    Type
REMARK                         _______ _______ _______ _____ _____    ______ ____
ROOT
ATOM      1  CA  TYR A   8      21.574   3.250 -16.710  0.00  0.00    +0.153 C 
ENDROOT
BRANCH   1   2
ATOM      2  C   TYR A   8      22.729   2.560 -16.033  0.00  0.00    +0.241 C 
ATOM      3  N   GLY A   9      23.513   3.336 -15.306  0.00  0.00    -0.295 N 
ATOM      4  H   GLY A   9      23.238   4.325 -15.141  0.00  0.00    +0.150 HD
ATOM      5  O   TYR A   8      22.891   1.353 -16.156  0.00  0.00    -0.273 OA
BRANCH   3   6
ATOM      6  CA  GLY A   9      24.736   2.844 -14.739  0.00  0.00    +0.176 C 
BRANCH   6   7
ATOM      7  C   GLY A   9      25.886   3.515 -15.445  0.00  0.00    +0.243 C 
ATOM      8  N   SER A  10      27.036   2.854 -15.446  0.00  0.00    -0.295 N 
ATOM      9  H   SER A  10      27.102   1.956 -14.926  0.00  0.00    +0.150 HD
ATOM     10  O   GLY A   9      25.743   4.608 -15.963  0.00  0.00    -0.273 OA
BRANCH   8  11
ATOM     11  CA  SER A  10      28.192   3.340 -16.143  0.00  0.00    +0.178 C 
BRANCH  11  12
ATOM     12  C   SER A  10      28.198   2.676 -17.537  0.00  0.00    +0.243 C 
ATOM     13  O   SER A  10      28.698   1.554 -17.721  0.00  0.00    -0.273 OA
ATOM     14  N   VAL A  11      27.604   3.382 -18.508  0.00  0.00    -0.297 N 
ATOM     15  H   VAL A  11      27.272   4.343 -18.289  0.00  0.00    +0.150 HD
BRANCH  14  16
ATOM     16  CA  VAL A  11      27.399   2.864 -19.867  0.00  0.00    +0.149 C 
BRANCH  16  17
ATOM     17  C   VAL A  11      28.034   3.747 -20.967  0.00  0.00    +0.241 C 
ATOM     18  O   VAL A  11      27.923   4.948 -20.912  0.00  0.00    -0.273 OA
ATOM     19  N   CYS A  12      28.671   3.135 -21.972  0.00  0.00    -0.296 N 
ATOM     20  H   CYS A  12      28.860   2.115 -21.899  0.00  0.00    +0.150 HD
BRANCH  19  21
ATOM     21  CA  CYS A  12      29.110   3.849 -23.168  0.00  0.00    +0.160 C 
BRANCH  21  22
ATOM     22  C   CYS A  12      28.549   3.194 -24.416  0.00  0.00    +0.242 C 
ATOM     23  O   CYS A  12      28.490   1.977 -24.509  0.00  0.00    -0.273 OA
ATOM     24  N   ALA A  13      28.140   4.027 -25.370  0.00  0.00    -0.297 N 
ATOM     25  H   ALA A  13      27.949   5.014 -25.102  0.00  0.00    +0.150 HD
BRANCH  24  26
ATOM     26  CA  ALA A  13      27.941   3.650 -26.768  0.00  0.00    +0.149 C 
ATOM     27  CB  ALA A  13      27.326   4.785 -27.516  0.00  0.00    +0.031 C 
BRANCH  26  28
ATOM     28  C   ALA A  13      29.295   3.275 -27.390  0.00  0.00    +0.241 C 
ATOM     29  O   ALA A  13      30.347   3.808 -27.038  0.00  0.00    -0.273 OA
ATOM     30  N   ALA A  14      29.270   2.301 -28.282  0.00  0.00    -0.298 N 
ATOM     31  H   ALA A  14      28.367   1.848 -28.527  0.00  0.00    +0.150 HD
BRANCH  30  32
ATOM     32  CA  ALA A  14      30.501   1.858 -28.925  0.00  0.00    +0.137 C 
ATOM     33  CB  ALA A  14      31.205   0.748 -28.115  0.00  0.00    +0.030 C 
BRANCH  32  34
ATOM     34  C   ALA A  14      30.141   1.351 -30.293  0.00  0.00    +0.227 C 
ATOM     35  O   ALA A  14      28.961   1.080 -30.585  0.00  0.00    -0.286 OA
ENDBRANCH  32  34
ENDBRANCH  30  32
ENDBRANCH  26  28
ENDBRANCH  24  26
ENDBRANCH  21  22
BRANCH  21  36
ATOM     36  CB  CYS A  12      30.635   3.850 -23.298  0.00  0.00    +0.098 C 
ATOM     37  SG  CYS A  12      31.559   4.803 -22.038  0.00  0.00    -0.080 S 
ENDBRANCH  21  36
ENDBRANCH  19  21
ENDBRANCH  16  17
BRANCH  16  38
ATOM     38  CB  VAL A  11      25.879   2.677 -20.170  0.00  0.00    +0.027 C 
ATOM     39  CG2 VAL A  11      25.223   1.819 -19.144  0.00  0.00    +0.002 C 
ATOM     40  CG1 VAL A  11      25.677   2.018 -21.504  0.00  0.00    +0.002 C 
ENDBRANCH  16  38
ENDBRANCH  14  16
ENDBRANCH  11  12
BRANCH  11  41
ATOM     41  CB  SER A  10      29.414   2.999 -15.314  0.00  0.00    +0.166 C 
BRANCH  41  42
ATOM     42  OG  SER A  10      30.574   3.598 -15.827  0.00  0.00    -0.380 OA
ATOM     43  H   SER A  10      31.348   3.353 -15.261  0.00  0.00    +0.211 HD
ENDBRANCH  41  42
ENDBRANCH  11  41
ENDBRANCH   8  11
ENDBRANCH   6   7
ENDBRANCH   3   6
ENDBRANCH   1   2
BRANCH   1  46
ATOM     44  C   ALA A   7      20.415   5.156 -15.676  0.00  0.00    +0.241 C 
ATOM     45  O   ALA A   7      19.510   4.437 -15.214  0.00  0.00    -0.273 OA
ATOM     46  N   TYR A   8      21.466   4.667 -16.328  0.00  0.00    -0.297 N 
ATOM     47  H   TYR A   8      22.243   5.312 -16.578  0.00  0.00    +0.150 HD
BRANCH  44  48
ATOM     48  CA  ALA A   7      20.404   6.685 -15.495  0.00  0.00    +0.149 C 
ATOM     49  CB  ALA A   7      19.340   7.317 -16.376  0.00  0.00    +0.031 C 
BRANCH  48  52
ATOM     50  C   GLY A   6      22.775   7.094 -14.976  0.00  0.00    +0.243 C 
ATOM     51  O   GLY A   6      22.711   6.480 -13.885  0.00  0.00    -0.273 OA
ATOM     52  N   ALA A   7      21.723   7.270 -15.786  0.00  0.00    -0.297 N 
ATOM     53  H   ALA A   7      21.842   7.839 -16.649  0.00  0.00    +0.150 HD
BRANCH  50  54
ATOM     54  CA  GLY A   6      24.102   7.688 -15.427  0.00  0.00    +0.176 C 
BRANCH  54  57
ATOM     55  C   SER A   5      23.643   9.695 -16.775  0.00  0.00    +0.243 C 
ATOM     56  O   SER A   5      23.098  10.281 -15.822  0.00  0.00    -0.273 OA
ATOM     57  N   GLY A   6      24.103   8.445 -16.688  0.00  0.00    -0.295 N 
ATOM     58  H   GLY A   6      24.476   7.989 -17.545  0.00  0.00    +0.150 HD
BRANCH  55  59
ATOM     59  CA  SER A   5      23.827  10.381 -18.153  0.00  0.00    +0.178 C 
BRANCH  59  62
ATOM     60  C   GLY A   4      22.159   8.935 -19.351  0.00  0.00    +0.243 C 
ATOM     61  O   GLY A   4      21.320   8.914 -18.424  0.00  0.00    -0.273 OA
ATOM     62  N   SER A   5      23.287   9.660 -19.331  0.00  0.00    -0.295 N 
ATOM     63  H   SER A   5      23.829   9.722 -20.217  0.00  0.00    +0.150 HD
BRANCH  60  64
ATOM     64  CA  GLY A   4      21.934   8.117 -20.622  0.00  0.00    +0.176 C 
BRANCH  64  67
ATOM     65  C   VAL A   3      24.179   7.546 -21.546  0.00  0.00    +0.241 C 
ATOM     66  O   VAL A   3      24.545   6.905 -20.552  0.00  0.00    -0.273 OA
ATOM     67  N   GLY A   4      22.999   8.175 -21.649  0.00  0.00    -0.295 N 
ATOM     68  H   GLY A   4      22.821   8.739 -22.504  0.00  0.00    +0.150 HD
BRANCH  65  69
ATOM     69  CA  VAL A   3      25.079   7.625 -22.764  0.00  0.00    +0.149 C 
BRANCH  69  71
ATOM     70  C   PRO A   2      27.509   8.109 -22.841  0.00  0.00    +0.241 C 
ATOM     71  N   VAL A   3      26.482   7.399 -22.362  0.00  0.00    -0.297 N 
ATOM     72  H   VAL A   3      26.682   6.649 -21.670  0.00  0.00    +0.150 HD
ATOM     73  O   PRO A   2      27.387   8.986 -23.713  0.00  0.00    -0.273 OA
BRANCH  70  76
ATOM     74  C   SER A   1      30.027   7.365 -24.469  0.00  0.00    +0.244 C 
ATOM     75  N   PRO A   2      30.015   7.919 -23.247  0.00  0.00    -0.272 N 
ATOM     76  CA  PRO A   2      28.893   7.768 -22.289  0.00  0.00    +0.152 C 
ATOM     77  CB  PRO A   2      29.295   8.723 -21.164  0.00  0.00    +0.031 C 
ATOM     78  CG  PRO A   2      30.852   8.650 -21.207  0.00  0.00    +0.024 C 
ATOM     79  CD  PRO A   2      31.142   8.693 -22.674  0.00  0.00    +0.094 C 
ATOM     80  O   SER A   1      29.122   6.616 -24.863  0.00  0.00    -0.273 OA
BRANCH  74  81
ATOM     81  CA  SER A   1      31.257   7.678 -25.352  0.00  0.00    +0.175 C 
BRANCH  81  82
ATOM     82  N   SER A   1      31.724   6.476 -25.994  0.00  0.00    -0.236 NA
ATOM     83  H   SER A   1      31.033   5.810 -26.395  0.00  0.00    +0.142 HD
ENDBRANCH  81  82
BRANCH  81  84
ATOM     84  CB  SER A   1      30.961   8.767 -26.399  0.00  0.00    +0.163 C 
BRANCH  84  85
ATOM     85  OG  SER A   1      29.632   8.654 -26.868  0.00  0.00    -0.380 OA
ATOM     86  H   SER A   1      29.005   8.758 -26.109  0.00  0.00    +0.211 HD
ENDBRANCH  84  85
ENDBRANCH  81  84
ENDBRANCH  74  81
ENDBRANCH  70  76
ENDBRANCH  69  71
BRANCH  69  87
ATOM     87  CB  VAL A   3      24.518   6.571 -23.784  0.00  0.00    +0.027 C 
ATOM     88  CG2 VAL A   3      24.723   5.139 -23.302  0.00  0.00    +0.002 C 
ATOM     89  CG1 VAL A   3      25.070   6.769 -25.161  0.00  0.00    +0.002 C 
ENDBRANCH  69  87
ENDBRANCH  65  69
ENDBRANCH  64  67
ENDBRANCH  60  64
ENDBRANCH  59  62
BRANCH  59  90
ATOM     90  CB  SER A   5      23.358  11.841 -18.142  0.00  0.00    +0.166 C 
BRANCH  90  91
ATOM     91  OG  SER A   5      24.046  12.584 -19.149  0.00  0.00    -0.380 OA
ATOM     92  H   SER A   5      23.736  13.524 -19.133  0.00  0.00    +0.211 HD
ENDBRANCH  90  91
ENDBRANCH  59  90
ENDBRANCH  55  59
ENDBRANCH  54  57
ENDBRANCH  50  54
ENDBRANCH  48  52
ENDBRANCH  44  48
ENDBRANCH   1  46
BRANCH   1  93
ATOM     93  CB  TYR A   8      21.695   3.118 -18.236  0.00  0.00    +0.055 C 
BRANCH  93  94
ATOM     94  CG  TYR A   8      20.542   3.789 -18.907  0.00  0.00    -0.020 A 
ATOM     95  CD2 TYR A   8      19.258   3.249 -18.805  0.00  0.00    -0.001 A 
ATOM     96  CE2 TYR A   8      18.190   3.860 -19.391  0.00  0.00    +0.036 A 
ATOM     97  CZ  TYR A   8      18.369   5.053 -20.058  0.00  0.00    +0.134 A 
ATOM     98  CE1 TYR A   8      19.633   5.632 -20.179  0.00  0.00    +0.036 A 
ATOM     99  CD1 TYR A   8      20.711   4.994 -19.594  0.00  0.00    -0.001 A 
BRANCH  97 100
ATOM    100  OH  TYR A   8      17.265   5.637 -20.644  0.00  0.00    -0.506 OA
ATOM    101  HH  TYR A   8      16.463   5.089 -20.453  0.00  0.00    +0.292 HD
ENDBRANCH  97 100
ENDBRANCH  93  94
ENDBRANCH   1  93
TORSDOF 39
REMARK  Name = ../refined-set-2016/3hub/3hub_pocket.pdb
REMARK  195 active torsions:
REMARK  status: ('A' for Active; 'I' for Inactive)
REMARK    1  A    between atoms: _1  and  _3
REMARK    2  A    between atoms: _3  and  _4
REMARK    3  A    between atoms: _3  and  _6
REMARK    4  A    between atoms: _6  and  _7
REMARK    5  A    between atoms: _10  and  _11
REMARK    6  A    between atoms: _16  and  _18
REMARK    7  A    between atoms: _18  and  _19
REMARK    8  A    between atoms: _18  and  _21
REMARK    9  A    between atoms: _24  and  _26
REMARK   10  A    between atoms: _26  and  _27
REMARK   11  A    between atoms: _29  and  _31
REMARK   12  A    between atoms: _31  and  _32
REMARK   13  A    between atoms: _31  and  _34
REMARK   14  A    between atoms: _34  and  _35
REMARK   15  A    between atoms: _37  and  _39
REMARK   16  A    between atoms: _39  and  _40
REMARK   17  A    between atoms: _42  and  _44
REMARK   18  A    between atoms: _44  and  _45
REMARK   19  A    between atoms: _48  and  _50
REMARK   20  A    between atoms: _50  and  _51
REMARK   21  A    between atoms: _50  and  _53
REMARK   22  A    between atoms: _53  and  _54
REMARK   23  A    between atoms: _59  and  _60
REMARK   24  A    between atoms: _62  and  _64
REMARK   25  A    between atoms: _64  and  _65
REMARK   26  A    between atoms: _67  and  _69
REMARK   27  A    between atoms: _69  and  _70
REMARK   28  A    between atoms: _69  and  _72
REMARK   29  A    between atoms: _72  and  _73
REMARK   30  A    between atoms: _75  and  _77
REMARK   31  A    between atoms: _77  and  _78
REMARK   32  A    between atoms: _77  and  _80
REMARK   33  A    between atoms: _83  and  _85
REMARK   34  A    between atoms: _85  and  _86
REMARK   35  A    between atoms: _85  and  _88
REMARK   36  A    between atoms: _90  and  _92
REMARK   37  A    between atoms: _92  and  _93
REMARK   38  A    between atoms: _96  and  _98
REMARK   39  A    between atoms: _98  and  _99
REMARK   40  A    between atoms: _102  and  _104
REMARK   41  A    between atoms: _104  and  _105
REMARK   42  A    between atoms: _104  and  _107
REMARK   43  A    between atoms: _107  and  _108
REMARK   44  A    between atoms: _108  and  _109
REMARK   45  A    between atoms: _109  and  _110
REMARK   46  A    between atoms: _119  and  _121
REMARK   47  A    between atoms: _121  and  _122
REMARK   48  A    between atoms: _121  and  _124
REMARK   49  A    between atoms: _127  and  _129
REMARK   50  A    between atoms: _129  and  _130
REMARK   51  A    between atoms: _133  and  _135
REMARK   52  A    between atoms: _135  and  _136
REMARK   53  A    between atoms: _135  and  _138
REMARK   54  A    between atoms: _141  and  _143
REMARK   55  A    between atoms: _143  and  _144
REMARK   56  A    between atoms: _143  and  _146
REMARK   57  A    between atoms: _146  and  _147
REMARK   58  A    between atoms: _147  and  _148
REMARK   59  A    between atoms: _148  and  _149
REMARK   60  A    between atoms: _149  and  _150
REMARK   61  A    between atoms: _154  and  _156
REMARK   62  A    between atoms: _156  and  _157
REMARK   63  A    between atoms: _156  and  _159
REMARK   64  A    between atoms: _159  and  _160
REMARK   65  A    between atoms: _160  and  _161
REMARK   66  A    between atoms: _161  and  _162
REMARK   67  A    between atoms: _162  and  _163
REMARK   68  A    between atoms: _167  and  _169
REMARK   69  A    between atoms: _169  and  _170
REMARK   70  A    between atoms: _169  and  _172
REMARK   71  A    between atoms: _172  and  _173
REMARK   72  A    between atoms: _176  and  _178
REMARK   73  A    between atoms: _178  and  _179
REMARK   74  A    between atoms: _178  and  _181
REMARK   75  A    between atoms: _181  and  _182
REMARK   76  A    between atoms: _182  and  _183
REMARK   77  A    between atoms: _186  and  _188
REMARK   78  A    between atoms: _188  and  _189
REMARK   79  A    between atoms: _188  and  _191
REMARK   80  A    between atoms: _191  and  _192
REMARK   81  A    between atoms: _195  and  _197
REMARK   82  A    between atoms: _197  and  _198
REMARK   83  A    between atoms: _197  and  _200
REMARK   84  A    between atoms: _200  and  _201
REMARK   85  A    between atoms: _204  and  _206
REMARK   86  A    between atoms: _206  and  _207
REMARK   87  A    between atoms: _209  and  _211
REMARK   88  A    between atoms: _211  and  _212
REMARK   89  A    between atoms: _211  and  _214
REMARK   90  A    between atoms: _214  and  _215
REMARK   91  A    between atoms: _218  and  _220
REMARK   92  A    between atoms: _220  and  _221
REMARK   93  A    between atoms: _220  and  _223
REMARK   94  A    between atoms: _223  and  _224
REMARK   95  A    between atoms: _227  and  _229
REMARK   96  A    between atoms: _229  and  _230
REMARK   97  A    between atoms: _229  and  _232
REMARK   98  A    between atoms: _232  and  _233
REMARK   99  A    between atoms: _236  and  _238
REMARK  100  A    between atoms: _238  and  _239
REMARK  101  A    between atoms: _238  and  _241
REMARK  102  A    between atoms: _244  and  _246
REMARK  103  A    between atoms: _246  and  _247
REMARK  104  A    between atoms: _246  and  _249
REMARK  105  A    between atoms: _249  and  _250
REMARK  106  A    between atoms: _255  and  _256
REMARK  107  A    between atoms: _258  and  _260
REMARK  108  A    between atoms: _260  and  _261
REMARK  109  A    between atoms: _260  and  _263
REMARK  110  A    between atoms: _263  and  _264
REMARK  111  A    between atoms: _267  and  _269
REMARK  112  A    between atoms: _269  and  _270
REMARK  113  A    between atoms: _269  and  _272
REMARK  114  A    between atoms: _275  and  _277
REMARK  115  A    between atoms: _277  and  _278
REMARK  116  A    between atoms: _277  and  _280
REMARK  117  A    between atoms: _280  and  _281
REMARK  118  A    between atoms: _284  and  _286
REMARK  119  A    between atoms: _286  and  _287
REMARK  120  A    between atoms: _286  and  _289
REMARK  121  A    between atoms: _289  and  _290
REMARK  122  A    between atoms: _295  and  _297
REMARK  123  A    between atoms: _297  and  _298
REMARK  124  A    between atoms: _297  and  _300
REMARK  125  A    between atoms: _300  and  _301
REMARK  126  A    between atoms: _304  and  _306
REMARK  127  A    between atoms: _306  and  _307
REMARK  128  A    between atoms: _306  and  _309
REMARK  129  A    between atoms: _309  and  _310
REMARK  130  A    between atoms: _310  and  _311
REMARK  131  A    between atoms: _313  and  _315
REMARK  132  A    between atoms: _315  and  _316
REMARK  133  A    between atoms: _318  and  _320
REMARK  134  A    between atoms: _320  and  _321
REMARK  135  A    between atoms: _324  and  _326
REMARK  136  A    between atoms: _326  and  _327
REMARK  137  A    between atoms: _326  and  _329
REMARK  138  A    between atoms: _329  and  _330
REMARK  139  A    between atoms: _333  and  _335
REMARK  140  A    between atoms: _335  and  _336
REMARK  141  A    between atoms: _335  and  _338
REMARK  142  A    between atoms: _338  and  _339
REMARK  143  A    between atoms: _342  and  _344
REMARK  144  A    between atoms: _344  and  _345
REMARK  145  A    between atoms: _344  and  _347
REMARK  146  A    between atoms: _347  and  _348
REMARK  147  A    between atoms: _353  and  _355
REMARK  148  A    between atoms: _355  and  _356
REMARK  149  A    between atoms: _355  and  _358
REMARK  150  A    between atoms: _358  and  _359
REMARK  151  A    between atoms: _365  and  _366
REMARK  152  A    between atoms: _371  and  _373
REMARK  153  A    between atoms: _373  and  _374
REMARK  154  A    between atoms: _373  and  _376
REMARK  155  A    between atoms: _376  and  _377
REMARK  156  A    between atoms: _379  and  _381
REMARK  157  A    between atoms: _381  and  _382
REMARK  158  A    between atoms: _381  and  _384
REMARK  159  A    between atoms: _384  and  _385
REMARK  160  A    between atoms: _390  and  _392
REMARK  161  A    between atoms: _392  and  _393
REMARK  162  A    between atoms: _392  and  _395
REMARK  163  A    between atoms: _395  and  _396
REMARK  164  A    between atoms: _399  and  _401
REMARK  165  A    between atoms: _401  and  _402
REMARK  166  A    between atoms: _405  and  _407
REMARK  167  A    between atoms: _407  and  _408
REMARK  168  A    between atoms: _407  and  _410
REMARK  169  A    between atoms: _413  and  _415
REMARK  170  A    between atoms: _415  and  _416
REMARK  171  A    between atoms: _415  and  _418
REMARK  172  A    between atoms: _418  and  _419
REMARK  173  A    between atoms: _424  and  _426
REMARK  174  A    between atoms: _426  and  _427
REMARK  175  A    between atoms: _426  and  _429
REMARK  176  A    between atoms: _429  and  _430
REMARK  177  A    between atoms: _430  and  _431
REMARK  178  A    between atoms: _431  and  _432
REMARK  179  A    between atoms: _432  and  _433
REMARK  180  A    between atoms: _437  and  _439
REMARK  181  A    between atoms: _439  and  _440
REMARK  182  A    between atoms: _439  and  _442
REMARK  183  A    between atoms: _442  and  _443
REMARK  184  A    between atoms: _446  and  _448
REMARK  185  A    between atoms: _448  and  _449
REMARK  186  A    between atoms: _448  and  _451
REMARK  187  A    between atoms: _451  and  _452
REMARK  188  A    between atoms: _455  and  _457
REMARK  189  A    between atoms: _457  and  _458
REMARK  190  A    between atoms: _457  and  _460
REMARK  191  A    between atoms: _460  and  _461
REMARK  192  A    between atoms: _464  and  _466
REMARK  193  A    between atoms: _466  and  _467
REMARK  194  A    between atoms: _466  and  _469
REMARK  195  A    between atoms: _469  and  _470
REMARK                            x       y       z     vdW  Elec       q    Type
REMARK                         _______ _______ _______ _____ _____    ______ ____
ROOT
ATOM      1  CA  VAL A   4      28.964  -1.426 -22.943  0.00  0.00    +0.149 C 
ENDROOT
BRANCH   1   3
ATOM      2  C   ALA A   3      26.986  -1.235 -24.384  0.00  0.00    +0.241 C 
ATOM      3  N   VAL A   4      28.073  -0.698 -23.833  0.00  0.00    -0.297 N 
ATOM      4  H   VAL A   4      28.297   0.294 -24.050  0.00  0.00    +0.150 HD
ATOM      5  O   ALA A   3      26.649  -2.396 -24.223  0.00  0.00    -0.273 OA
BRANCH   2   6
ATOM      6  CA  ALA A   3      26.148  -0.310 -25.241  0.00  0.00    +0.149 C 
ATOM      7  CB  ALA A   3      24.788   0.018 -24.585  0.00  0.00    +0.031 C 
BRANCH   6   9
ATOM      8  C   VAL A   2      26.497  -0.538 -27.615  0.00  0.00    +0.241 C 
ATOM      9  N   ALA A   3      25.974  -1.015 -26.493  0.00  0.00    -0.297 N 
ATOM     10  H   ALA A   3      25.434  -1.904 -26.513  0.00  0.00    +0.150 HD
ATOM     11  O   VAL A   2      27.009   0.571 -27.667  0.00  0.00    -0.273 OA
BRANCH   8  12
ATOM     12  CA  VAL A   2      26.408  -1.422 -28.867  0.00  0.00    +0.148 C 
BRANCH  12  14
ATOM     13  C   ARG A   1      25.824  -0.706 -31.133  0.00  0.00    +0.238 C 
ATOM     14  N   VAL A   2      26.620  -0.621 -30.070  0.00  0.00    -0.297 N 
ATOM     15  H   VAL A   2      27.422   0.040 -30.097  0.00  0.00    +0.150 HD
ATOM     16  O   ARG A   1      24.727  -1.266 -31.119  0.00  0.00    -0.274 OA
BRANCH  13  17
ATOM     17  CA  ARG A   1      26.318  -0.023 -32.392  0.00  0.00    +0.145 C 
BRANCH  17  18
ATOM     18  N   ARG A   1      26.144  -1.034 -33.431  0.00  0.00    -0.238 NA
ATOM     19  H   ARG A   1      25.263  -1.033 -33.984  0.00  0.00    +0.142 HD
ENDBRANCH  17  18
BRANCH  17  20
ATOM     20  CB  ARG A   1      25.451   1.216 -32.631  0.00  0.00    +0.030 C 
BRANCH  20  21
ATOM     21  CG  ARG A   1      25.866   2.111 -33.787  0.00  0.00    +0.045 C 
BRANCH  21  22
ATOM     22  CD  ARG A   1      24.956   3.325 -33.848  0.00  0.00    +0.174 C 
BRANCH  22  23
ATOM     23  NE  ARG A   1      23.851   3.069 -34.766  0.00  0.00    -0.265 N 
ATOM     24  CZ  ARG A   1      22.655   2.590 -34.403  0.00  0.00    +0.342 C 
ATOM     25  NH2 ARG A   1      22.386   2.330 -33.108  0.00  0.00    -0.292 N 
ATOM     26 HH21 ARG A   1      23.110   2.501 -32.382  0.00  0.00    +0.255 HD
ATOM     27 HH22 ARG A   1      21.454   1.958 -32.835  0.00  0.00    +0.255 HD
ATOM     28  NH1 ARG A   1      21.726   2.369 -35.344  0.00  0.00    -0.292 N 
ATOM     29 HH11 ARG A   1      20.793   1.997 -35.076  0.00  0.00    +0.255 HD
ATOM     30 HH12 ARG A   1      21.939   2.570 -36.342  0.00  0.00    +0.255 HD
ATOM     31  HE  ARG A   1      24.004   3.273 -35.774  0.00  0.00    +0.259 HD
ENDBRANCH  22  23
ENDBRANCH  21  22
ENDBRANCH  20  21
ENDBRANCH  17  20
ENDBRANCH  13  17
ENDBRANCH  12  14
BRANCH  12  32
ATOM     32  CB  VAL A   2      27.398  -2.610 -28.816  0.00  0.00    +0.027 C 
ATOM     33  CG2 VAL A   2      28.824  -2.127 -28.771  0.00  0.00    +0.002 C 
ATOM     34  CG1 VAL A   2      27.234  -3.514 -30.033  0.00  0.00    +0.002 C 
ENDBRANCH  12  32
ENDBRANCH   8  12
ENDBRANCH   6   9
ENDBRANCH   2   6
ENDBRANCH   1   3
BRANCH   1  35
ATOM     35  C   VAL A   4      28.779  -0.920 -21.514  0.00  0.00    +0.241 C 
ATOM     36  N   LYS A   5      28.410  -1.808 -20.611  0.00  0.00    -0.297 N 
ATOM     37  H   LYS A   5      28.267  -2.801 -20.884  0.00  0.00    +0.150 HD
ATOM     38  O   VAL A   4      28.914   0.258 -21.232  0.00  0.00    -0.273 OA
BRANCH  36  39
ATOM     39  CA  LYS A   5      28.205  -1.396 -19.237  0.00  0.00    +0.149 C 
BRANCH  39  40
ATOM     40  C   LYS A   5      29.357  -1.945 -18.376  0.00  0.00    +0.241 C 
ATOM     41  N   LYS A   6      30.111  -1.055 -17.710  0.00  0.00    -0.297 N 
ATOM     42  H   LYS A   6      29.992  -0.045 -17.929  0.00  0.00    +0.150 HD
ATOM     43  O   LYS A   5      29.595  -3.166 -18.397  0.00  0.00    -0.273 OA
BRANCH  41  44
ATOM     44  CA  LYS A   6      31.093  -1.435 -16.691  0.00  0.00    +0.149 C 
BRANCH  44  45
ATOM     45  C   LYS A   6      30.353  -1.501 -15.369  0.00  0.00    +0.241 C 
ATOM     46  O   LYS A   6      29.934  -0.460 -14.834  0.00  0.00    -0.273 OA
ATOM     47  N   LEU A   7      30.169  -2.711 -14.847  0.00  0.00    -0.298 N 
ATOM     48  H   LEU A   7      30.467  -3.551 -15.383  0.00  0.00    +0.150 HD
BRANCH  47  49
ATOM     49  CA  LEU A   7      29.549  -2.879 -13.519  0.00  0.00    +0.137 C 
BRANCH  49  50
ATOM     50  C   LEU A   7      30.340  -2.141 -12.467  0.00  0.00    +0.227 C 
ATOM     51  O   LEU A   7      31.598  -2.113 -12.524  0.00  0.00    -0.286 OA
ENDBRANCH  49  50
BRANCH  49  52
ATOM     52  CB  LEU A   7      29.408  -4.355 -13.127  0.00  0.00    +0.028 C 
BRANCH  52  53
ATOM     53  CG  LEU A   7      28.299  -5.007 -13.971  0.00  0.00    +0.002 C 
ATOM     54  CD2 LEU A   7      27.995  -6.438 -13.571  0.00  0.00    +0.000 C 
ATOM     55  CD1 LEU A   7      27.063  -4.126 -13.928  0.00  0.00    +0.000 C 
ENDBRANCH  52  53
ENDBRANCH  49  52
ENDBRANCH  47  49
ENDBRANCH  44  45
BRANCH  44  56
ATOM     56  CB  LYS A   6      32.266  -0.419 -16.564  0.00  0.00    +0.029 C 
BRANCH  56  57
ATOM     57  CG  LYS A   6      33.366  -0.841 -15.543  0.00  0.00    +0.000 C 
BRANCH  57  58
ATOM     58  CD  LYS A   6      34.612   0.100 -15.533  0.00  0.00    -0.024 C 
BRANCH  58  59
ATOM     59  CE  LYS A   6      35.781  -0.290 -14.571  0.00  0.00    -0.086 C 
BRANCH  59  60
ATOM     60  NZ  LYS A   6      37.051   0.562 -14.793  0.00  0.00    +0.380 N 
ATOM     61  HZ1 LYS A   6      37.791   0.259 -14.128  0.00  0.00    -0.089 HD
ATOM     62  HZ2 LYS A   6      36.827   1.565 -14.631  0.00  0.00    -0.089 HD
ATOM     63  HZ3 LYS A   6      37.387   0.434 -15.769  0.00  0.00    -0.089 HD
ENDBRANCH  59  60
ENDBRANCH  58  59
ENDBRANCH  57  58
ENDBRANCH  56  57
ENDBRANCH  44  56
ENDBRANCH  41  44
ENDBRANCH  39  40
BRANCH  39  64
ATOM     64  CB  LYS A   5      26.856  -1.897 -18.759  0.00  0.00    +0.029 C 
BRANCH  64  65
ATOM     65  CG  LYS A   5      26.503  -1.481 -17.380  0.00  0.00    +0.000 C 
BRANCH  65  66
ATOM     66  CD  LYS A   5      25.173  -2.024 -17.057  0.00  0.00    -0.024 C 
BRANCH  66  67
ATOM     67  CE  LYS A   5      24.700  -1.477 -15.756  0.00  0.00    -0.086 C 
BRANCH  67  68
ATOM     68  NZ  LYS A   5      23.471  -2.234 -15.345  0.00  0.00    +0.380 N 
ATOM     69  HZ1 LYS A   5      23.126  -1.865 -14.436  0.00  0.00    -0.089 HD
ATOM     70  HZ2 LYS A   5      23.704  -3.243 -15.245  0.00  0.00    -0.089 HD
ATOM     71  HZ3 LYS A   5      22.735  -2.117 -16.070  0.00  0.00    -0.089 HD
ENDBRANCH  67  68
ENDBRANCH  66  67
ENDBRANCH  65  66
ENDBRANCH  64  65
ENDBRANCH  39  64
ENDBRANCH  36  39
ENDBRANCH   1  35
BRANCH   1  72
ATOM     72  CB  VAL A   4      30.438  -1.284 -23.385  0.00  0.00    +0.027 C 
ATOM     73  CG2 VAL A   4      31.351  -2.219 -22.563  0.00  0.00    +0.002 C 
ATOM     74  CG1 VAL A   4      30.583  -1.575 -24.884  0.00  0.00    +0.002 C 
ENDBRANCH   1  72
TORSDOF 32
REMARK  Name = ../refined-set-2016/3hub/3hub_pocket.pdb
REMARK  195 active torsions:
REMARK  status: ('A' for Active; 'I' for Inactive)
REMARK    1  A    between atoms: _1  and  _3
REMARK    2  A    between atoms: _3  and  _4
REMARK    3  A    between atoms: _3  and  _6
REMARK    4  A    between atoms: _6  and  _7
REMARK    5  A    between atoms: _10  and  _11
REMARK    6  A    between atoms: _16  and  _18
REMARK    7  A    between atoms: _18  and  _19
REMARK    8  A    between atoms: _18  and  _21
REMARK    9  A    between atoms: _24  and  _26
REMARK   10  A    between atoms: _26  and  _27
REMARK   11  A    between atoms: _29  and  _31
REMARK   12  A    between atoms: _31  and  _32
REMARK   13  A    between atoms: _31  and  _34
REMARK   14  A    between atoms: _34  and  _35
REMARK   15  A    between atoms: _37  and  _39
REMARK   16  A    between atoms: _39  and  _40
REMARK   17  A    between atoms: _42  and  _44
REMARK   18  A    between atoms: _44  and  _45
REMARK   19  A    between atoms: _48  and  _50
REMARK   20  A    between atoms: _50  and  _51
REMARK   21  A    between atoms: _50  and  _53
REMARK   22  A    between atoms: _53  and  _54
REMARK   23  A    between atoms: _59  and  _60
REMARK   24  A    between atoms: _62  and  _64
REMARK   25  A    between atoms: _64  and  _65
REMARK   26  A    between atoms: _67  and  _69
REMARK   27  A    between atoms: _69  and  _70
REMARK   28  A    between atoms: _69  and  _72
REMARK   29  A    between atoms: _72  and  _73
REMARK   30  A    between atoms: _75  and  _77
REMARK   31  A    between atoms: _77  and  _78
REMARK   32  A    between atoms: _77  and  _80
REMARK   33  A    between atoms: _83  and  _85
REMARK   34  A    between atoms: _85  and  _86
REMARK   35  A    between atoms: _85  and  _88
REMARK   36  A    between atoms: _90  and  _92
REMARK   37  A    between atoms: _92  and  _93
REMARK   38  A    between atoms: _96  and  _98
REMARK   39  A    between atoms: _98  and  _99
REMARK   40  A    between atoms: _102  and  _104
REMARK   41  A    between atoms: _104  and  _105
REMARK   42  A    between atoms: _104  and  _107
REMARK   43  A    between atoms: _107  and  _108
REMARK   44  A    between atoms: _108  and  _109
REMARK   45  A    between atoms: _109  and  _110
REMARK   46  A    between atoms: _119  and  _121
REMARK   47  A    between atoms: _121  and  _122
REMARK   48  A    between atoms: _121  and  _124
REMARK   49  A    between atoms: _127  and  _129
REMARK   50  A    between atoms: _129  and  _130
REMARK   51  A    between atoms: _133  and  _135
REMARK   52  A    between atoms: _135  and  _136
REMARK   53  A    between atoms: _135  and  _138
REMARK   54  A    between atoms: _141  and  _143
REMARK   55  A    between atoms: _143  and  _144
REMARK   56  A    between atoms: _143  and  _146
REMARK   57  A    between atoms: _146  and  _147
REMARK   58  A    between atoms: _147  and  _148
REMARK   59  A    between atoms: _148  and  _149
REMARK   60  A    between atoms: _149  and  _150
REMARK   61  A    between atoms: _154  and  _156
REMARK   62  A    between atoms: _156  and  _157
REMARK   63  A    between atoms: _156  and  _159
REMARK   64  A    between atoms: _159  and  _160
REMARK   65  A    between atoms: _160  and  _161
REMARK   66  A    between atoms: _161  and  _162
REMARK   67  A    between atoms: _162  and  _163
REMARK   68  A    between atoms: _167  and  _169
REMARK   69  A    between atoms: _169  and  _170
REMARK   70  A    between atoms: _169  and  _172
REMARK   71  A    between atoms: _172  and  _173
REMARK   72  A    between atoms: _176  and  _178
REMARK   73  A    between atoms: _178  and  _179
REMARK   74  A    between atoms: _178  and  _181
REMARK   75  A    between atoms: _181  and  _182
REMARK   76  A    between atoms: _182  and  _183
REMARK   77  A    between atoms: _186  and  _188
REMARK   78  A    between atoms: _188  and  _189
REMARK   79  A    between atoms: _188  and  _191
REMARK   80  A    between atoms: _191  and  _192
REMARK   81  A    between atoms: _195  and  _197
REMARK   82  A    between atoms: _197  and  _198
REMARK   83  A    between atoms: _197  and  _200
REMARK   84  A    between atoms: _200  and  _201
REMARK   85  A    between atoms: _204  and  _206
REMARK   86  A    between atoms: _206  and  _207
REMARK   87  A    between atoms: _209  and  _211
REMARK   88  A    between atoms: _211  and  _212
REMARK   89  A    between atoms: _211  and  _214
REMARK   90  A    between atoms: _214  and  _215
REMARK   91  A    between atoms: _218  and  _220
REMARK   92  A    between atoms: _220  and  _221
REMARK   93  A    between atoms: _220  and  _223
REMARK   94  A    between atoms: _223  and  _224
REMARK   95  A    between atoms: _227  and  _229
REMARK   96  A    between atoms: _229  and  _230
REMARK   97  A    between atoms: _229  and  _232
REMARK   98  A    between atoms: _232  and  _233
REMARK   99  A    between atoms: _236  and  _238
REMARK  100  A    between atoms: _238  and  _239
REMARK  101  A    between atoms: _238  and  _241
REMARK  102  A    between atoms: _244  and  _246
REMARK  103  A    between atoms: _246  and  _247
REMARK  104  A    between atoms: _246  and  _249
REMARK  105  A    between atoms: _249  and  _250
REMARK  106  A    between atoms: _255  and  _256
REMARK  107  A    between atoms: _258  and  _260
REMARK  108  A    between atoms: _260  and  _261
REMARK  109  A    between atoms: _260  and  _263
REMARK  110  A    between atoms: _263  and  _264
REMARK  111  A    between atoms: _267  and  _269
REMARK  112  A    between atoms: _269  and  _270
REMARK  113  A    between atoms: _269  and  _272
REMARK  114  A    between atoms: _275  and  _277
REMARK  115  A    between atoms: _277  and  _278
REMARK  116  A    between atoms: _277  and  _280
REMARK  117  A    between atoms: _280  and  _281
REMARK  118  A    between atoms: _284  and  _286
REMARK  119  A    between atoms: _286  and  _287
REMARK  120  A    between atoms: _286  and  _289
REMARK  121  A    between atoms: _289  and  _290
REMARK  122  A    between atoms: _295  and  _297
REMARK  123  A    between atoms: _297  and  _298
REMARK  124  A    between atoms: _297  and  _300
REMARK  125  A    between atoms: _300  and  _301
REMARK  126  A    between atoms: _304  and  _306
REMARK  127  A    between atoms: _306  and  _307
REMARK  128  A    between atoms: _306  and  _309
REMARK  129  A    between atoms: _309  and  _310
REMARK  130  A    between atoms: _310  and  _311
REMARK  131  A    between atoms: _313  and  _315
REMARK  132  A    between atoms: _315  and  _316
REMARK  133  A    between atoms: _318  and  _320
REMARK  134  A    between atoms: _320  and  _321
REMARK  135  A    between atoms: _324  and  _326
REMARK  136  A    between atoms: _326  and  _327
REMARK  137  A    between atoms: _326  and  _329
REMARK  138  A    between atoms: _329  and  _330
REMARK  139  A    between atoms: _333  and  _335
REMARK  140  A    between atoms: _335  and  _336
REMARK  141  A    between atoms: _335  and  _338
REMARK  142  A    between atoms: _338  and  _339
REMARK  143  A    between atoms: _342  and  _344
REMARK  144  A    between atoms: _344  and  _345
REMARK  145  A    between atoms: _344  and  _347
REMARK  146  A    between atoms: _347  and  _348
REMARK  147  A    between atoms: _353  and  _355
REMARK  148  A    between atoms: _355  and  _356
REMARK  149  A    between atoms: _355  and  _358
REMARK  150  A    between atoms: _358  and  _359
REMARK  151  A    between atoms: _365  and  _366
REMARK  152  A    between atoms: _371  and  _373
REMARK  153  A    between atoms: _373  and  _374
REMARK  154  A    between atoms: _373  and  _376
REMARK  155  A    between atoms: _376  and  _377
REMARK  156  A    between atoms: _379  and  _381
REMARK  157  A    between atoms: _381  and  _382
REMARK  158  A    between atoms: _381  and  _384
REMARK  159  A    between atoms: _384  and  _385
REMARK  160  A    between atoms: _390  and  _392
REMARK  161  A    between atoms: _392  and  _393
REMARK  162  A    between atoms: _392  and  _395
REMARK  163  A    between atoms: _395  and  _396
REMARK  164  A    between atoms: _399  and  _401
REMARK  165  A    between atoms: _401  and  _402
REMARK  166  A    between atoms: _405  and  _407
REMARK  167  A    between atoms: _407  and  _408
REMARK  168  A    between atoms: _407  and  _410
REMARK  169  A    between atoms: _413  and  _415
REMARK  170  A    between atoms: _415  and  _416
REMARK  171  A    between atoms: _415  and  _418
REMARK  172  A    between atoms: _418  and  _419
REMARK  173  A    between atoms: _424  and  _426
REMARK  174  A    between atoms: _426  and  _427
REMARK  175  A    between atoms: _426  and  _429
REMARK  176  A    between atoms: _429  and  _430
REMARK  177  A    between atoms: _430  and  _431
REMARK  178  A    between atoms: _431  and  _432
REMARK  179  A    between atoms: _432  and  _433
REMARK  180  A    between atoms: _437  and  _439
REMARK  181  A    between atoms: _439  and  _440
REMARK  182  A    between atoms: _439  and  _442
REMARK  183  A    between atoms: _442  and  _443
REMARK  184  A    between atoms: _446  and  _448
REMARK  185  A    between atoms: _448  and  _449
REMARK  186  A    between atoms: _448  and  _451
REMARK  187  A    between atoms: _451  and  _452
REMARK  188  A    between atoms: _455  and  _457
REMARK  189  A    between atoms: _457  and  _458
REMARK  190  A    between atoms: _457  and  _460
REMARK  191  A    between atoms: _460  and  _461
REMARK  192  A    between atoms: _464  and  _466
REMARK  193  A    between atoms: _466  and  _467
REMARK  194  A    between atoms: _466  and  _469
REMARK  195  A    between atoms: _469  and  _470
REMARK                            x       y       z     vdW  Elec       q    Type
REMARK                         _______ _______ _______ _____ _____    ______ ____
ROOT
ATOM      1  CA  GLU A   1      22.243  -9.553 -13.569  0.00  0.00    +0.134 C 
ENDROOT
BRANCH   1   2
ATOM      2  N   GLU A   1      22.323 -10.356 -12.318  0.00  0.00    -0.239 NA
ATOM      3  H   GLU A   1      22.797  -9.950 -11.486  0.00  0.00    +0.142 HD
ENDBRANCH   1   2
BRANCH   1   4
ATOM      4  C   GLU A   1      22.914 -10.324 -14.717  0.00  0.00    +0.224 C 
ATOM      5  O   GLU A   1      22.356 -10.488 -15.755  0.00  0.00    -0.287 OA
ENDBRANCH   1   4
BRANCH   1   6
ATOM      6  CB  GLU A   1      22.897  -8.151 -13.428  0.00  0.00    +0.037 C 
BRANCH   6   7
ATOM      7  CG  GLU A   1      22.477  -7.164 -14.591  0.00  0.00    +0.116 C 
BRANCH   7   8
ATOM      8  CD  GLU A   1      23.236  -5.795 -14.596  0.00  0.00    +0.365 C 
ATOM      9  OE2 GLU A   1      23.838  -5.429 -13.582  0.00  0.00    -0.246 OA
ATOM     10  OE1 GLU A   1      23.253  -5.085 -15.630  0.00  0.00    -0.246 OA
ENDBRANCH   7   8
ENDBRANCH   6   7
ENDBRANCH   1   6
TORSDOF 5
REMARK  Name = ../refined-set-2016/3hub/3hub_pocket.pdb
REMARK  195 active torsions:
REMARK  status: ('A' for Active; 'I' for Inactive)
REMARK    1  A    between atoms: _1  and  _3
REMARK    2  A    between atoms: _3  and  _4
REMARK    3  A    between atoms: _3  and  _6
REMARK    4  A    between atoms: _6  and  _7
REMARK    5  A    between atoms: _10  and  _11
REMARK    6  A    between atoms: _16  and  _18
REMARK    7  A    between atoms: _18  and  _19
REMARK    8  A    between atoms: _18  and  _21
REMARK    9  A    between atoms: _24  and  _26
REMARK   10  A    between atoms: _26  and  _27
REMARK   11  A    between atoms: _29  and  _31
REMARK   12  A    between atoms: _31  and  _32
REMARK   13  A    between atoms: _31  and  _34
REMARK   14  A    between atoms: _34  and  _35
REMARK   15  A    between atoms: _37  and  _39
REMARK   16  A    between atoms: _39  and  _40
REMARK   17  A    between atoms: _42  and  _44
REMARK   18  A    between atoms: _44  and  _45
REMARK   19  A    between atoms: _48  and  _50
REMARK   20  A    between atoms: _50  and  _51
REMARK   21  A    between atoms: _50  and  _53
REMARK   22  A    between atoms: _53  and  _54
REMARK   23  A    between atoms: _59  and  _60
REMARK   24  A    between atoms: _62  and  _64
REMARK   25  A    between atoms: _64  and  _65
REMARK   26  A    between atoms: _67  and  _69
REMARK   27  A    between atoms: _69  and  _70
REMARK   28  A    between atoms: _69  and  _72
REMARK   29  A    between atoms: _72  and  _73
REMARK   30  A    between atoms: _75  and  _77
REMARK   31  A    between atoms: _77  and  _78
REMARK   32  A    between atoms: _77  and  _80
REMARK   33  A    between atoms: _83  and  _85
REMARK   34  A    between atoms: _85  and  _86
REMARK   35  A    between atoms: _85  and  _88
REMARK   36  A    between atoms: _90  and  _92
REMARK   37  A    between atoms: _92  and  _93
REMARK   38  A    between atoms: _96  and  _98
REMARK   39  A    between atoms: _98  and  _99
REMARK   40  A    between atoms: _102  and  _104
REMARK   41  A    between atoms: _104  and  _105
REMARK   42  A    between atoms: _104  and  _107
REMARK   43  A    between atoms: _107  and  _108
REMARK   44  A    between atoms: _108  and  _109
REMARK   45  A    between atoms: _109  and  _110
REMARK   46  A    between atoms: _119  and  _121
REMARK   47  A    between atoms: _121  and  _122
REMARK   48  A    between atoms: _121  and  _124
REMARK   49  A    between atoms: _127  and  _129
REMARK   50  A    between atoms: _129  and  _130
REMARK   51  A    between atoms: _133  and  _135
REMARK   52  A    between atoms: _135  and  _136
REMARK   53  A    between atoms: _135  and  _138
REMARK   54  A    between atoms: _141  and  _143
REMARK   55  A    between atoms: _143  and  _144
REMARK   56  A    between atoms: _143  and  _146
REMARK   57  A    between atoms: _146  and  _147
REMARK   58  A    between atoms: _147  and  _148
REMARK   59  A    between atoms: _148  and  _149
REMARK   60  A    between atoms: _149  and  _150
REMARK   61  A    between atoms: _154  and  _156
REMARK   62  A    between atoms: _156  and  _157
REMARK   63  A    between atoms: _156  and  _159
REMARK   64  A    between atoms: _159  and  _160
REMARK   65  A    between atoms: _160  and  _161
REMARK   66  A    between atoms: _161  and  _162
REMARK   67  A    between atoms: _162  and  _163
REMARK   68  A    between atoms: _167  and  _169
REMARK   69  A    between atoms: _169  and  _170
REMARK   70  A    between atoms: _169  and  _172
REMARK   71  A    between atoms: _172  and  _173
REMARK   72  A    between atoms: _176  and  _178
REMARK   73  A    between atoms: _178  and  _179
REMARK   74  A    between atoms: _178  and  _181
REMARK   75  A    between atoms: _181  and  _182
REMARK   76  A    between atoms: _182  and  _183
REMARK   77  A    between atoms: _186  and  _188
REMARK   78  A    between atoms: _188  and  _189
REMARK   79  A    between atoms: _188  and  _191
REMARK   80  A    between atoms: _191  and  _192
REMARK   81  A    between atoms: _195  and  _197
REMARK   82  A    between atoms: _197  and  _198
REMARK   83  A    between atoms: _197  and  _200
REMARK   84  A    between atoms: _200  and  _201
REMARK   85  A    between atoms: _204  and  _206
REMARK   86  A    between atoms: _206  and  _207
REMARK   87  A    between atoms: _209  and  _211
REMARK   88  A    between atoms: _211  and  _212
REMARK   89  A    between atoms: _211  and  _214
REMARK   90  A    between atoms: _214  and  _215
REMARK   91  A    between atoms: _218  and  _220
REMARK   92  A    between atoms: _220  and  _221
REMARK   93  A    between atoms: _220  and  _223
REMARK   94  A    between atoms: _223  and  _224
REMARK   95  A    between atoms: _227  and  _229
REMARK   96  A    between atoms: _229  and  _230
REMARK   97  A    between atoms: _229  and  _232
REMARK   98  A    between atoms: _232  and  _233
REMARK   99  A    between atoms: _236  and  _238
REMARK  100  A    between atoms: _238  and  _239
REMARK  101  A    between atoms: _238  and  _241
REMARK  102  A    between atoms: _244  and  _246
REMARK  103  A    between atoms: _246  and  _247
REMARK  104  A    between atoms: _246  and  _249
REMARK  105  A    between atoms: _249  and  _250
REMARK  106  A    between atoms: _255  and  _256
REMARK  107  A    between atoms: _258  and  _260
REMARK  108  A    between atoms: _260  and  _261
REMARK  109  A    between atoms: _260  and  _263
REMARK  110  A    between atoms: _263  and  _264
REMARK  111  A    between atoms: _267  and  _269
REMARK  112  A    between atoms: _269  and  _270
REMARK  113  A    between atoms: _269  and  _272
REMARK  114  A    between atoms: _275  and  _277
REMARK  115  A    between atoms: _277  and  _278
REMARK  116  A    between atoms: _277  and  _280
REMARK  117  A    between atoms: _280  and  _281
REMARK  118  A    between atoms: _284  and  _286
REMARK  119  A    between atoms: _286  and  _287
REMARK  120  A    between atoms: _286  and  _289
REMARK  121  A    between atoms: _289  and  _290
REMARK  122  A    between atoms: _295  and  _297
REMARK  123  A    between atoms: _297  and  _298
REMARK  124  A    between atoms: _297  and  _300
REMARK  125  A    between atoms: _300  and  _301
REMARK  126  A    between atoms: _304  and  _306
REMARK  127  A    between atoms: _306  and  _307
REMARK  128  A    between atoms: _306  and  _309
REMARK  129  A    between atoms: _309  and  _310
REMARK  130  A    between atoms: _310  and  _311
REMARK  131  A    between atoms: _313  and  _315
REMARK  132  A    between atoms: _315  and  _316
REMARK  133  A    between atoms: _318  and  _320
REMARK  134  A    between atoms: _320  and  _321
REMARK  135  A    between atoms: _324  and  _326
REMARK  136  A    between atoms: _326  and  _327
REMARK  137  A    between atoms: _326  and  _329
REMARK  138  A    between atoms: _329  and  _330
REMARK  139  A    between atoms: _333  and  _335
REMARK  140  A    between atoms: _335  and  _336
REMARK  141  A    between atoms: _335  and  _338
REMARK  142  A    between atoms: _338  and  _339
REMARK  143  A    between atoms: _342  and  _344
REMARK  144  A    between atoms: _344  and  _345
REMARK  145  A    between atoms: _344  and  _347
REMARK  146  A    between atoms: _347  and  _348
REMARK  147  A    between atoms: _353  and  _355
REMARK  148  A    between atoms: _355  and  _356
REMARK  149  A    between atoms: _355  and  _358
REMARK  150  A    between atoms: _358  and  _359
REMARK  151  A    between atoms: _365  and  _366
REMARK  152  A    between atoms: _371  and  _373
REMARK  153  A    between atoms: _373  and  _374
REMARK  154  A    between atoms: _373  and  _376
REMARK  155  A    between atoms: _376  and  _377
REMARK  156  A    between atoms: _379  and  _381
REMARK  157  A    between atoms: _381  and  _382
REMARK  158  A    between atoms: _381  and  _384
REMARK  159  A    between atoms: _384  and  _385
REMARK  160  A    between atoms: _390  and  _392
REMARK  161  A    between atoms: _392  and  _393
REMARK  162  A    between atoms: _392  and  _395
REMARK  163  A    between atoms: _395  and  _396
REMARK  164  A    between atoms: _399  and  _401
REMARK  165  A    between atoms: _401  and  _402
REMARK  166  A    between atoms: _405  and  _407
REMARK  167  A    between atoms: _407  and  _408
REMARK  168  A    between atoms: _407  and  _410
REMARK  169  A    between atoms: _413  and  _415
REMARK  170  A    between atoms: _415  and  _416
REMARK  171  A    between atoms: _415  and  _418
REMARK  172  A    between atoms: _418  and  _419
REMARK  173  A    between atoms: _424  and  _426
REMARK  174  A    between atoms: _426  and  _427
REMARK  175  A    between atoms: _426  and  _429
REMARK  176  A    between atoms: _429  and  _430
REMARK  177  A    between atoms: _430  and  _431
REMARK  178  A    between atoms: _431  and  _432
REMARK  179  A    between atoms: _432  and  _433
REMARK  180  A    between atoms: _437  and  _439
REMARK  181  A    between atoms: _439  and  _440
REMARK  182  A    between atoms: _439  and  _442
REMARK  183  A    between atoms: _442  and  _443
REMARK  184  A    between atoms: _446  and  _448
REMARK  185  A    between atoms: _448  and  _449
REMARK  186  A    between atoms: _448  and  _451
REMARK  187  A    between atoms: _451  and  _452
REMARK  188  A    between atoms: _455  and  _457
REMARK  189  A    between atoms: _457  and  _458
REMARK  190  A    between atoms: _457  and  _460
REMARK  191  A    between atoms: _460  and  _461
REMARK  192  A    between atoms: _464  and  _466
REMARK  193  A    between atoms: _466  and  _467
REMARK  194  A    between atoms: _466  and  _469
REMARK  195  A    between atoms: _469  and  _470
REMARK                            x       y       z     vdW  Elec       q    Type
REMARK                         _______ _______ _______ _____ _____    ______ ____
ROOT
ATOM      1  CA  LEU A   1      20.997 -11.489 -19.311  0.00  0.00    +0.133 C 
ENDROOT
BRANCH   1   2
ATOM      2  N   LEU A   1      20.624 -11.897 -17.950  0.00  0.00    -0.239 NA
ATOM      3  H   LEU A   1      21.085 -11.439 -17.138  0.00  0.00    +0.142 HD
ENDBRANCH   1   2
BRANCH   1   4
ATOM      4  C   LEU A   1      21.458 -12.631 -20.188  0.00  0.00    +0.224 C 
ATOM      5  O   LEU A   1      21.097 -12.657 -21.351  0.00  0.00    -0.287 OA
ENDBRANCH   1   4
BRANCH   1   6
ATOM      6  CB  LEU A   1      22.083 -10.398 -19.297  0.00  0.00    +0.025 C 
BRANCH   6   7
ATOM      7  CG  LEU A   1      21.568  -9.053 -18.789  0.00  0.00    +0.002 C 
ATOM      8  CD2 LEU A   1      22.723  -8.056 -18.663  0.00  0.00    +0.000 C 
ATOM      9  CD1 LEU A   1      20.434  -8.540 -19.691  0.00  0.00    +0.000 C 
ENDBRANCH   6   7
ENDBRANCH   1   6
TORSDOF 4
REMARK  Name = ../refined-set-2016/3hub/3hub_pocket.pdb
REMARK  195 active torsions:
REMARK  status: ('A' for Active; 'I' for Inactive)
REMARK    1  A    between atoms: _1  and  _3
REMARK    2  A    between atoms: _3  and  _4
REMARK    3  A    between atoms: _3  and  _6
REMARK    4  A    between atoms: _6  and  _7
REMARK    5  A    between atoms: _10  and  _11
REMARK    6  A    between atoms: _16  and  _18
REMARK    7  A    between atoms: _18  and  _19
REMARK    8  A    between atoms: _18  and  _21
REMARK    9  A    between atoms: _24  and  _26
REMARK   10  A    between atoms: _26  and  _27
REMARK   11  A    between atoms: _29  and  _31
REMARK   12  A    between atoms: _31  and  _32
REMARK   13  A    between atoms: _31  and  _34
REMARK   14  A    between atoms: _34  and  _35
REMARK   15  A    between atoms: _37  and  _39
REMARK   16  A    between atoms: _39  and  _40
REMARK   17  A    between atoms: _42  and  _44
REMARK   18  A    between atoms: _44  and  _45
REMARK   19  A    between atoms: _48  and  _50
REMARK   20  A    between atoms: _50  and  _51
REMARK   21  A    between atoms: _50  and  _53
REMARK   22  A    between atoms: _53  and  _54
REMARK   23  A    between atoms: _59  and  _60
REMARK   24  A    between atoms: _62  and  _64
REMARK   25  A    between atoms: _64  and  _65
REMARK   26  A    between atoms: _67  and  _69
REMARK   27  A    between atoms: _69  and  _70
REMARK   28  A    between atoms: _69  and  _72
REMARK   29  A    between atoms: _72  and  _73
REMARK   30  A    between atoms: _75  and  _77
REMARK   31  A    between atoms: _77  and  _78
REMARK   32  A    between atoms: _77  and  _80
REMARK   33  A    between atoms: _83  and  _85
REMARK   34  A    between atoms: _85  and  _86
REMARK   35  A    between atoms: _85  and  _88
REMARK   36  A    between atoms: _90  and  _92
REMARK   37  A    between atoms: _92  and  _93
REMARK   38  A    between atoms: _96  and  _98
REMARK   39  A    between atoms: _98  and  _99
REMARK   40  A    between atoms: _102  and  _104
REMARK   41  A    between atoms: _104  and  _105
REMARK   42  A    between atoms: _104  and  _107
REMARK   43  A    between atoms: _107  and  _108
REMARK   44  A    between atoms: _108  and  _109
REMARK   45  A    between atoms: _109  and  _110
REMARK   46  A    between atoms: _119  and  _121
REMARK   47  A    between atoms: _121  and  _122
REMARK   48  A    between atoms: _121  and  _124
REMARK   49  A    between atoms: _127  and  _129
REMARK   50  A    between atoms: _129  and  _130
REMARK   51  A    between atoms: _133  and  _135
REMARK   52  A    between atoms: _135  and  _136
REMARK   53  A    between atoms: _135  and  _138
REMARK   54  A    between atoms: _141  and  _143
REMARK   55  A    between atoms: _143  and  _144
REMARK   56  A    between atoms: _143  and  _146
REMARK   57  A    between atoms: _146  and  _147
REMARK   58  A    between atoms: _147  and  _148
REMARK   59  A    between atoms: _148  and  _149
REMARK   60  A    between atoms: _149  and  _150
REMARK   61  A    between atoms: _154  and  _156
REMARK   62  A    between atoms: _156  and  _157
REMARK   63  A    between atoms: _156  and  _159
REMARK   64  A    between atoms: _159  and  _160
REMARK   65  A    between atoms: _160  and  _161
REMARK   66  A    between atoms: _161  and  _162
REMARK   67  A    between atoms: _162  and  _163
REMARK   68  A    between atoms: _167  and  _169
REMARK   69  A    between atoms: _169  and  _170
REMARK   70  A    between atoms: _169  and  _172
REMARK   71  A    between atoms: _172  and  _173
REMARK   72  A    between atoms: _176  and  _178
REMARK   73  A    between atoms: _178  and  _179
REMARK   74  A    between atoms: _178  and  _181
REMARK   75  A    between atoms: _181  and  _182
REMARK   76  A    between atoms: _182  and  _183
REMARK   77  A    between atoms: _186  and  _188
REMARK   78  A    between atoms: _188  and  _189
REMARK   79  A    between atoms: _188  and  _191
REMARK   80  A    between atoms: _191  and  _192
REMARK   81  A    between atoms: _195  and  _197
REMARK   82  A    between atoms: _197  and  _198
REMARK   83  A    between atoms: _197  and  _200
REMARK   84  A    between atoms: _200  and  _201
REMARK   85  A    between atoms: _204  and  _206
REMARK   86  A    between atoms: _206  and  _207
REMARK   87  A    between atoms: _209  and  _211
REMARK   88  A    between atoms: _211  and  _212
REMARK   89  A    between atoms: _211  and  _214
REMARK   90  A    between atoms: _214  and  _215
REMARK   91  A    between atoms: _218  and  _220
REMARK   92  A    between atoms: _220  and  _221
REMARK   93  A    between atoms: _220  and  _223
REMARK   94  A    between atoms: _223  and  _224
REMARK   95  A    between atoms: _227  and  _229
REMARK   96  A    between atoms: _229  and  _230
REMARK   97  A    between atoms: _229  and  _232
REMARK   98  A    between atoms: _232  and  _233
REMARK   99  A    between atoms: _236  and  _238
REMARK  100  A    between atoms: _238  and  _239
REMARK  101  A    between atoms: _238  and  _241
REMARK  102  A    between atoms: _244  and  _246
REMARK  103  A    between atoms: _246  and  _247
REMARK  104  A    between atoms: _246  and  _249
REMARK  105  A    between atoms: _249  and  _250
REMARK  106  A    between atoms: _255  and  _256
REMARK  107  A    between atoms: _258  and  _260
REMARK  108  A    between atoms: _260  and  _261
REMARK  109  A    between atoms: _260  and  _263
REMARK  110  A    between atoms: _263  and  _264
REMARK  111  A    between atoms: _267  and  _269
REMARK  112  A    between atoms: _269  and  _270
REMARK  113  A    between atoms: _269  and  _272
REMARK  114  A    between atoms: _275  and  _277
REMARK  115  A    between atoms: _277  and  _278
REMARK  116  A    between atoms: _277  and  _280
REMARK  117  A    between atoms: _280  and  _281
REMARK  118  A    between atoms: _284  and  _286
REMARK  119  A    between atoms: _286  and  _287
REMARK  120  A    between atoms: _286  and  _289
REMARK  121  A    between atoms: _289  and  _290
REMARK  122  A    between atoms: _295  and  _297
REMARK  123  A    between atoms: _297  and  _298
REMARK  124  A    between atoms: _297  and  _300
REMARK  125  A    between atoms: _300  and  _301
REMARK  126  A    between atoms: _304  and  _306
REMARK  127  A    between atoms: _306  and  _307
REMARK  128  A    between atoms: _306  and  _309
REMARK  129  A    between atoms: _309  and  _310
REMARK  130  A    between atoms: _310  and  _311
REMARK  131  A    between atoms: _313  and  _315
REMARK  132  A    between atoms: _315  and  _316
REMARK  133  A    between atoms: _318  and  _320
REMARK  134  A    between atoms: _320  and  _321
REMARK  135  A    between atoms: _324  and  _326
REMARK  136  A    between atoms: _326  and  _327
REMARK  137  A    between atoms: _326  and  _329
REMARK  138  A    between atoms: _329  and  _330
REMARK  139  A    between atoms: _333  and  _335
REMARK  140  A    between atoms: _335  and  _336
REMARK  141  A    between atoms: _335  and  _338
REMARK  142  A    between atoms: _338  and  _339
REMARK  143  A    between atoms: _342  and  _344
REMARK  144  A    between atoms: _344  and  _345
REMARK  145  A    between atoms: _344  and  _347
REMARK  146  A    between atoms: _347  and  _348
REMARK  147  A    between atoms: _353  and  _355
REMARK  148  A    between atoms: _355  and  _356
REMARK  149  A    between atoms: _355  and  _358
REMARK  150  A    between atoms: _358  and  _359
REMARK  151  A    between atoms: _365  and  _366
REMARK  152  A    between atoms: _371  and  _373
REMARK  153  A    between atoms: _373  and  _374
REMARK  154  A    between atoms: _373  and  _376
REMARK  155  A    between atoms: _376  and  _377
REMARK  156  A    between atoms: _379  and  _381
REMARK  157  A    between atoms: _381  and  _382
REMARK  158  A    between atoms: _381  and  _384
REMARK  159  A    between atoms: _384  and  _385
REMARK  160  A    between atoms: _390  and  _392
REMARK  161  A    between atoms: _392  and  _393
REMARK  162  A    between atoms: _392  and  _395
REMARK  163  A    between atoms: _395  and  _396
REMARK  164  A    between atoms: _399  and  _401
REMARK  165  A    between atoms: _401  and  _402
REMARK  166  A    between atoms: _405  and  _407
REMARK  167  A    between atoms: _407  and  _408
REMARK  168  A    between atoms: _407  and  _410
REMARK  169  A    between atoms: _413  and  _415
REMARK  170  A    between atoms: _415  and  _416
REMARK  171  A    between atoms: _415  and  _418
REMARK  172  A    between atoms: _418  and  _419
REMARK  173  A    between atoms: _424  and  _426
REMARK  174  A    between atoms: _426  and  _427
REMARK  175  A    between atoms: _426  and  _429
REMARK  176  A    between atoms: _429  and  _430
REMARK  177  A    between atoms: _430  and  _431
REMARK  178  A    between atoms: _431  and  _432
REMARK  179  A    between atoms: _432  and  _433
REMARK  180  A    between atoms: _437  and  _439
REMARK  181  A    between atoms: _439  and  _440
REMARK  182  A    between atoms: _439  and  _442
REMARK  183  A    between atoms: _442  and  _443
REMARK  184  A    between atoms: _446  and  _448
REMARK  185  A    between atoms: _448  and  _449
REMARK  186  A    between atoms: _448  and  _451
REMARK  187  A    between atoms: _451  and  _452
REMARK  188  A    between atoms: _455  and  _457
REMARK  189  A    between atoms: _457  and  _458
REMARK  190  A    between atoms: _457  and  _460
REMARK  191  A    between atoms: _460  and  _461
REMARK  192  A    between atoms: _464  and  _466
REMARK  193  A    between atoms: _466  and  _467
REMARK  194  A    between atoms: _466  and  _469
REMARK  195  A    between atoms: _469  and  _470
REMARK                            x       y       z     vdW  Elec       q    Type
REMARK                         _______ _______ _______ _____ _____    ______ ____
ROOT
ATOM      1  C   LEU A   3      24.541 -10.468 -25.531  0.00  0.00    +0.241 C 
ATOM      2  O   LEU A   3      24.474 -11.628 -25.967  0.00  0.00    -0.273 OA
ATOM      3  N   LEU A   4      25.179  -9.453 -26.137  0.00  0.00    -0.297 N 
ATOM      4  H   LEU A   4      25.036  -8.487 -25.780  0.00  0.00    +0.150 HD
ENDROOT
BRANCH   3   5
ATOM      5  CA  LEU A   4      26.054  -9.653 -27.263  0.00  0.00    +0.149 C 
BRANCH   5   6
ATOM      6  C   LEU A   4      27.395 -10.161 -26.777  0.00  0.00    +0.241 C 
ATOM      7  N   ASP A   5      27.856  -9.672 -25.617  0.00  0.00    -0.297 N 
ATOM      8  H   ASP A   5      27.271  -9.001 -25.079  0.00  0.00    +0.150 HD
ATOM      9  O   LEU A   4      28.008 -10.982 -27.430  0.00  0.00    -0.273 OA
BRANCH   7  10
ATOM     10  CA  ASP A   5      29.164 -10.062 -25.091  0.00  0.00    +0.160 C 
BRANCH  10  11
ATOM     11  C   ASP A   5      29.237  -9.839 -23.574  0.00  0.00    +0.241 C 
ATOM     12  N   VAL A   6      30.168 -10.524 -22.923  0.00  0.00    -0.298 N 
ATOM     13  H   VAL A   6      30.658 -11.298 -23.416  0.00  0.00    +0.150 HD
ATOM     14  O   ASP A   5      28.459  -9.063 -23.011  0.00  0.00    -0.273 OA
BRANCH  12  15
ATOM     15  CA  VAL A   6      30.534 -10.226 -21.523  0.00  0.00    +0.137 C 
BRANCH  15  16
ATOM     16  CB  VAL A   6      29.672 -10.994 -20.434  0.00  0.00    +0.026 C 
ATOM     17  CG2 VAL A   6      30.169 -10.743 -18.992  0.00  0.00    +0.002 C 
ATOM     18  CG1 VAL A   6      29.640 -12.481 -20.684  0.00  0.00    +0.002 C 
ENDBRANCH  15  16
BRANCH  15  19
ATOM     19  C   VAL A   6      32.017 -10.509 -21.398  0.00  0.00    +0.227 C 
ATOM     20  O   VAL A   6      32.520 -11.532 -21.891  0.00  0.00    -0.286 OA
ENDBRANCH  15  19
ENDBRANCH  12  15
ENDBRANCH  10  11
BRANCH  10  21
ATOM     21  CB  ASP A   5      30.233  -9.268 -25.842  0.00  0.00    +0.143 C 
BRANCH  21  22
ATOM     22  CG  ASP A   5      31.680  -9.820 -25.658  0.00  0.00    +0.367 C 
ATOM     23  OD2 ASP A   5      31.916 -11.001 -25.325  0.00  0.00    -0.246 OA
ATOM     24  OD1 ASP A   5      32.608  -9.005 -25.809  0.00  0.00    -0.246 OA
ENDBRANCH  21  22
ENDBRANCH  10  21
ENDBRANCH   7  10
ENDBRANCH   5   6
BRANCH   5  25
ATOM     25  CB  LEU A   4      26.235  -8.341 -28.052  0.00  0.00    +0.029 C 
BRANCH  25  26
ATOM     26  CG  LEU A   4      24.980  -7.826 -28.772  0.00  0.00    +0.002 C 
ATOM     27  CD2 LEU A   4      25.318  -6.510 -29.454  0.00  0.00    +0.000 C 
ATOM     28  CD1 LEU A   4      24.541  -8.878 -29.822  0.00  0.00    +0.000 C 
ENDBRANCH  25  26
ENDBRANCH   5  25
ENDBRANCH   3   5
BRANCH   1  29
ATOM     29  CA  LEU A   3      23.941 -10.144 -24.203  0.00  0.00    +0.149 C 
BRANCH  29  32
ATOM     30  C   GLY A   2      21.588  -9.585 -24.080  0.00  0.00    +0.243 C 
ATOM     31  O   GLY A   2      21.841  -8.395 -24.033  0.00  0.00    -0.273 OA
ATOM     32  N   LEU A   3      22.537 -10.495 -24.139  0.00  0.00    -0.297 N 
ATOM     33  H   LEU A   3      22.270 -11.500 -24.140  0.00  0.00    +0.150 HD
BRANCH  30  34
ATOM     34  CA  GLY A   2      20.142 -10.070 -24.007  0.00  0.00    +0.176 C 
BRANCH  34  37
ATOM     35  C   ILE A   1      18.308  -8.497 -23.454  0.00  0.00    +0.238 C 
ATOM     36  O   ILE A   1      18.074  -9.019 -22.379  0.00  0.00    -0.274 OA
ATOM     37  N   GLY A   2      19.197  -8.987 -24.320  0.00  0.00    -0.296 N 
ATOM     38  H   GLY A   2      19.223  -8.578 -25.276  0.00  0.00    +0.150 HD
BRANCH  35  39
ATOM     39  CA  ILE A   1      17.530  -7.252 -23.883  0.00  0.00    +0.145 C 
BRANCH  39  40
ATOM     40  CB  ILE A   1      17.898  -6.031 -22.967  0.00  0.00    +0.025 C 
ATOM     41  CG2 ILE A   1      19.402  -5.893 -22.738  0.00  0.00    +0.002 C 
BRANCH  40  42
ATOM     42  CG1 ILE A   1      17.451  -4.726 -23.602  0.00  0.00    +0.002 C 
ATOM     43  CD1 ILE A   1      18.157  -4.369 -24.933  0.00  0.00    +0.000 C 
ENDBRANCH  40  42
ENDBRANCH  39  40
BRANCH  39  44
ATOM     44  N   ILE A   1      16.060  -7.511 -23.913  0.00  0.00    -0.238 NA
ATOM     45  H   ILE A   1      15.437  -6.950 -23.298  0.00  0.00    +0.142 HD
ENDBRANCH  39  44
ENDBRANCH  35  39
ENDBRANCH  34  37
ENDBRANCH  30  34
ENDBRANCH  29  32
BRANCH  29  46
ATOM     46  CB  LEU A   3      24.795 -10.887 -23.165  0.00  0.00    +0.029 C 
BRANCH  46  47
ATOM     47  CG  LEU A   3      24.793 -10.548 -21.691  0.00  0.00    +0.002 C 
ATOM     48  CD2 LEU A   3      25.565 -11.629 -20.984  0.00  0.00    +0.000 C 
ATOM     49  CD1 LEU A   3      25.402  -9.158 -21.437  0.00  0.00    +0.000 C 
ENDBRANCH  46  47
ENDBRANCH  29  46
ENDBRANCH   1  29
TORSDOF 21
REMARK  Name = ../refined-set-2016/3hub/3hub_pocket.pdb
REMARK  195 active torsions:
REMARK  status: ('A' for Active; 'I' for Inactive)
REMARK    1  A    between atoms: _1  and  _3
REMARK    2  A    between atoms: _3  and  _4
REMARK    3  A    between atoms: _3  and  _6
REMARK    4  A    between atoms: _6  and  _7
REMARK    5  A    between atoms: _10  and  _11
REMARK    6  A    between atoms: _16  and  _18
REMARK    7  A    between atoms: _18  and  _19
REMARK    8  A    between atoms: _18  and  _21
REMARK    9  A    between atoms: _24  and  _26
REMARK   10  A    between atoms: _26  and  _27
REMARK   11  A    between atoms: _29  and  _31
REMARK   12  A    between atoms: _31  and  _32
REMARK   13  A    between atoms: _31  and  _34
REMARK   14  A    between atoms: _34  and  _35
REMARK   15  A    between atoms: _37  and  _39
REMARK   16  A    between atoms: _39  and  _40
REMARK   17  A    between atoms: _42  and  _44
REMARK   18  A    between atoms: _44  and  _45
REMARK   19  A    between atoms: _48  and  _50
REMARK   20  A    between atoms: _50  and  _51
REMARK   21  A    between atoms: _50  and  _53
REMARK   22  A    between atoms: _53  and  _54
REMARK   23  A    between atoms: _59  and  _60
REMARK   24  A    between atoms: _62  and  _64
REMARK   25  A    between atoms: _64  and  _65
REMARK   26  A    between atoms: _67  and  _69
REMARK   27  A    between atoms: _69  and  _70
REMARK   28  A    between atoms: _69  and  _72
REMARK   29  A    between atoms: _72  and  _73
REMARK   30  A    between atoms: _75  and  _77
REMARK   31  A    between atoms: _77  and  _78
REMARK   32  A    between atoms: _77  and  _80
REMARK   33  A    between atoms: _83  and  _85
REMARK   34  A    between atoms: _85  and  _86
REMARK   35  A    between atoms: _85  and  _88
REMARK   36  A    between atoms: _90  and  _92
REMARK   37  A    between atoms: _92  and  _93
REMARK   38  A    between atoms: _96  and  _98
REMARK   39  A    between atoms: _98  and  _99
REMARK   40  A    between atoms: _102  and  _104
REMARK   41  A    between atoms: _104  and  _105
REMARK   42  A    between atoms: _104  and  _107
REMARK   43  A    between atoms: _107  and  _108
REMARK   44  A    between atoms: _108  and  _109
REMARK   45  A    between atoms: _109  and  _110
REMARK   46  A    between atoms: _119  and  _121
REMARK   47  A    between atoms: _121  and  _122
REMARK   48  A    between atoms: _121  and  _124
REMARK   49  A    between atoms: _127  and  _129
REMARK   50  A    between atoms: _129  and  _130
REMARK   51  A    between atoms: _133  and  _135
REMARK   52  A    between atoms: _135  and  _136
REMARK   53  A    between atoms: _135  and  _138
REMARK   54  A    between atoms: _141  and  _143
REMARK   55  A    between atoms: _143  and  _144
REMARK   56  A    between atoms: _143  and  _146
REMARK   57  A    between atoms: _146  and  _147
REMARK   58  A    between atoms: _147  and  _148
REMARK   59  A    between atoms: _148  and  _149
REMARK   60  A    between atoms: _149  and  _150
REMARK   61  A    between atoms: _154  and  _156
REMARK   62  A    between atoms: _156  and  _157
REMARK   63  A    between atoms: _156  and  _159
REMARK   64  A    between atoms: _159  and  _160
REMARK   65  A    between atoms: _160  and  _161
REMARK   66  A    between atoms: _161  and  _162
REMARK   67  A    between atoms: _162  and  _163
REMARK   68  A    between atoms: _167  and  _169
REMARK   69  A    between atoms: _169  and  _170
REMARK   70  A    between atoms: _169  and  _172
REMARK   71  A    between atoms: _172  and  _173
REMARK   72  A    between atoms: _176  and  _178
REMARK   73  A    between atoms: _178  and  _179
REMARK   74  A    between atoms: _178  and  _181
REMARK   75  A    between atoms: _181  and  _182
REMARK   76  A    between atoms: _182  and  _183
REMARK   77  A    between atoms: _186  and  _188
REMARK   78  A    between atoms: _188  and  _189
REMARK   79  A    between atoms: _188  and  _191
REMARK   80  A    between atoms: _191  and  _192
REMARK   81  A    between atoms: _195  and  _197
REMARK   82  A    between atoms: _197  and  _198
REMARK   83  A    between atoms: _197  and  _200
REMARK   84  A    between atoms: _200  and  _201
REMARK   85  A    between atoms: _204  and  _206
REMARK   86  A    between atoms: _206  and  _207
REMARK   87  A    between atoms: _209  and  _211
REMARK   88  A    between atoms: _211  and  _212
REMARK   89  A    between atoms: _211  and  _214
REMARK   90  A    between atoms: _214  and  _215
REMARK   91  A    between atoms: _218  and  _220
REMARK   92  A    between atoms: _220  and  _221
REMARK   93  A    between atoms: _220  and  _223
REMARK   94  A    between atoms: _223  and  _224
REMARK   95  A    between atoms: _227  and  _229
REMARK   96  A    between atoms: _229  and  _230
REMARK   97  A    between atoms: _229  and  _232
REMARK   98  A    between atoms: _232  and  _233
REMARK   99  A    between atoms: _236  and  _238
REMARK  100  A    between atoms: _238  and  _239
REMARK  101  A    between atoms: _238  and  _241
REMARK  102  A    between atoms: _244  and  _246
REMARK  103  A    between atoms: _246  and  _247
REMARK  104  A    between atoms: _246  and  _249
REMARK  105  A    between atoms: _249  and  _250
REMARK  106  A    between atoms: _255  and  _256
REMARK  107  A    between atoms: _258  and  _260
REMARK  108  A    between atoms: _260  and  _261
REMARK  109  A    between atoms: _260  and  _263
REMARK  110  A    between atoms: _263  and  _264
REMARK  111  A    between atoms: _267  and  _269
REMARK  112  A    between atoms: _269  and  _270
REMARK  113  A    between atoms: _269  and  _272
REMARK  114  A    between atoms: _275  and  _277
REMARK  115  A    between atoms: _277  and  _278
REMARK  116  A    between atoms: _277  and  _280
REMARK  117  A    between atoms: _280  and  _281
REMARK  118  A    between atoms: _284  and  _286
REMARK  119  A    between atoms: _286  and  _287
REMARK  120  A    between atoms: _286  and  _289
REMARK  121  A    between atoms: _289  and  _290
REMARK  122  A    between atoms: _295  and  _297
REMARK  123  A    between atoms: _297  and  _298
REMARK  124  A    between atoms: _297  and  _300
REMARK  125  A    between atoms: _300  and  _301
REMARK  126  A    between atoms: _304  and  _306
REMARK  127  A    between atoms: _306  and  _307
REMARK  128  A    between atoms: _306  and  _309
REMARK  129  A    between atoms: _309  and  _310
REMARK  130  A    between atoms: _310  and  _311
REMARK  131  A    between atoms: _313  and  _315
REMARK  132  A    between atoms: _315  and  _316
REMARK  133  A    between atoms: _318  and  _320
REMARK  134  A    between atoms: _320  and  _321
REMARK  135  A    between atoms: _324  and  _326
REMARK  136  A    between atoms: _326  and  _327
REMARK  137  A    between atoms: _326  and  _329
REMARK  138  A    between atoms: _329  and  _330
REMARK  139  A    between atoms: _333  and  _335
REMARK  140  A    between atoms: _335  and  _336
REMARK  141  A    between atoms: _335  and  _338
REMARK  142  A    between atoms: _338  and  _339
REMARK  143  A    between atoms: _342  and  _344
REMARK  144  A    between atoms: _344  and  _345
REMARK  145  A    between atoms: _344  and  _347
REMARK  146  A    between atoms: _347  and  _348
REMARK  147  A    between atoms: _353  and  _355
REMARK  148  A    between atoms: _355  and  _356
REMARK  149  A    between atoms: _355  and  _358
REMARK  150  A    between atoms: _358  and  _359
REMARK  151  A    between atoms: _365  and  _366
REMARK  152  A    between atoms: _371  and  _373
REMARK  153  A    between atoms: _373  and  _374
REMARK  154  A    between atoms: _373  and  _376
REMARK  155  A    between atoms: _376  and  _377
REMARK  156  A    between atoms: _379  and  _381
REMARK  157  A    between atoms: _381  and  _382
REMARK  158  A    between atoms: _381  and  _384
REMARK  159  A    between atoms: _384  and  _385
REMARK  160  A    between atoms: _390  and  _392
REMARK  161  A    between atoms: _392  and  _393
REMARK  162  A    between atoms: _392  and  _395
REMARK  163  A    between atoms: _395  and  _396
REMARK  164  A    between atoms: _399  and  _401
REMARK  165  A    between atoms: _401  and  _402
REMARK  166  A    between atoms: _405  and  _407
REMARK  167  A    between atoms: _407  and  _408
REMARK  168  A    between atoms: _407  and  _410
REMARK  169  A    between atoms: _413  and  _415
REMARK  170  A    between atoms: _415  and  _416
REMARK  171  A    between atoms: _415  and  _418
REMARK  172  A    between atoms: _418  and  _419
REMARK  173  A    between atoms: _424  and  _426
REMARK  174  A    between atoms: _426  and  _427
REMARK  175  A    between atoms: _426  and  _429
REMARK  176  A    between atoms: _429  and  _430
REMARK  177  A    between atoms: _430  and  _431
REMARK  178  A    between atoms: _431  and  _432
REMARK  179  A    between atoms: _432  and  _433
REMARK  180  A    between atoms: _437  and  _439
REMARK  181  A    between atoms: _439  and  _440
REMARK  182  A    between atoms: _439  and  _442
REMARK  183  A    between atoms: _442  and  _443
REMARK  184  A    between atoms: _446  and  _448
REMARK  185  A    between atoms: _448  and  _449
REMARK  186  A    between atoms: _448  and  _451
REMARK  187  A    between atoms: _451  and  _452
REMARK  188  A    between atoms: _455  and  _457
REMARK  189  A    between atoms: _457  and  _458
REMARK  190  A    between atoms: _457  and  _460
REMARK  191  A    between atoms: _460  and  _461
REMARK  192  A    between atoms: _464  and  _466
REMARK  193  A    between atoms: _466  and  _467
REMARK  194  A    between atoms: _466  and  _469
REMARK  195  A    between atoms: _469  and  _470
REMARK                            x       y       z     vdW  Elec       q    Type
REMARK                         _______ _______ _______ _____ _____    ______ ____
ROOT
ATOM      1  C   LEU A   6      20.989   0.448 -29.552  0.00  0.00    +0.241 C 
ATOM      2  N   MET A   7      19.860   0.479 -28.852  0.00  0.00    -0.297 N 
ATOM      3  H   MET A   7      19.889   0.238 -27.841  0.00  0.00    +0.150 HD
ATOM      4  O   LEU A   6      21.011   0.528 -30.783  0.00  0.00    -0.273 OA
ENDROOT
BRANCH   1   5
ATOM      5  CA  LEU A   6      22.292   0.221 -28.747  0.00  0.00    +0.149 C 
BRANCH   5   8
ATOM      6  C   HIS A   5      22.180  -2.122 -28.149  0.00  0.00    +0.241 C 
ATOM      7  O   HIS A   5      21.565  -1.891 -27.121  0.00  0.00    -0.273 OA
ATOM      8  N   LEU A   6      22.705  -1.165 -28.901  0.00  0.00    -0.297 N 
ATOM      9  H   LEU A   6      23.423  -1.409 -29.612  0.00  0.00    +0.150 HD
BRANCH   6  10
ATOM     10  CA  HIS A   5      22.402  -3.548 -28.617  0.00  0.00    +0.155 C 
BRANCH  10  13
ATOM     11  C   THR A   4      23.928  -4.277 -26.809  0.00  0.00    +0.243 C 
ATOM     12  O   THR A   4      24.735  -3.396 -27.003  0.00  0.00    -0.273 OA
ATOM     13  N   HIS A   5      22.859  -4.457 -27.557  0.00  0.00    -0.297 N 
ATOM     14  H   HIS A   5      22.293  -5.312 -27.383  0.00  0.00    +0.150 HD
BRANCH  11  15
ATOM     15  CA  THR A   4      24.117  -5.282 -25.671  0.00  0.00    +0.176 C 
BRANCH  15  18
ATOM     16  C   VAL A   3      26.131  -6.019 -24.597  0.00  0.00    +0.241 C 
ATOM     17  O   VAL A   3      25.747  -7.182 -24.581  0.00  0.00    -0.273 OA
ATOM     18  N   THR A   4      25.382  -5.024 -25.034  0.00  0.00    -0.295 N 
ATOM     19  H   THR A   4      25.709  -4.044 -24.917  0.00  0.00    +0.150 HD
BRANCH  16  20
ATOM     20  CA  VAL A   3      27.496  -5.641 -24.071  0.00  0.00    +0.149 C 
BRANCH  20  23
ATOM     21  C   LEU A   2      27.968  -5.564 -21.670  0.00  0.00    +0.241 C 
ATOM     22  O   LEU A   2      27.986  -4.343 -21.678  0.00  0.00    -0.273 OA
ATOM     23  N   VAL A   3      27.727  -6.276 -22.767  0.00  0.00    -0.297 N 
ATOM     24  H   VAL A   3      27.701  -7.313 -22.700  0.00  0.00    +0.150 HD
BRANCH  21  25
ATOM     25  CA  LEU A   2      28.265  -6.374 -20.378  0.00  0.00    +0.149 C 
BRANCH  25  27
ATOM     26  C   TYR A   1      30.538  -6.329 -19.510  0.00  0.00    +0.239 C 
ATOM     27  N   LEU A   2      29.351  -5.772 -19.639  0.00  0.00    -0.297 N 
ATOM     28  H   LEU A   2      29.187  -4.851 -19.185  0.00  0.00    +0.150 HD
ATOM     29  O   TYR A   1      30.854  -7.398 -20.053  0.00  0.00    -0.274 OA
BRANCH  26  30
ATOM     30  CA  TYR A   1      31.543  -5.548 -18.634  0.00  0.00    +0.149 C 
BRANCH  30  31
ATOM     31  N   TYR A   1      32.148  -6.429 -17.619  0.00  0.00    -0.238 NA
ATOM     32  H   TYR A   1      32.618  -7.303 -17.931  0.00  0.00    +0.142 HD
ENDBRANCH  30  31
BRANCH  30  33
ATOM     33  CB  TYR A   1      32.598  -4.933 -19.566  0.00  0.00    +0.053 C 
BRANCH  33  34
ATOM     34  CG  TYR A   1      33.700  -4.085 -18.948  0.00  0.00    -0.020 A 
ATOM     35  CD2 TYR A   1      34.759  -4.665 -18.226  0.00  0.00    -0.001 A 
ATOM     36  CE2 TYR A   1      35.807  -3.855 -17.684  0.00  0.00    +0.036 A 
ATOM     37  CZ  TYR A   1      35.771  -2.471 -17.896  0.00  0.00    +0.134 A 
ATOM     38  CE1 TYR A   1      34.722  -1.889 -18.628  0.00  0.00    +0.036 A 
ATOM     39  CD1 TYR A   1      33.713  -2.694 -19.143  0.00  0.00    -0.001 A 
BRANCH  37  40
ATOM     40  OH  TYR A   1      36.768  -1.652 -17.391  0.00  0.00    -0.506 OA
ATOM     41  HH  TYR A   1      37.430  -2.203 -16.903  0.00  0.00    +0.292 HD
ENDBRANCH  37  40
ENDBRANCH  33  34
ENDBRANCH  30  33
ENDBRANCH  26  30
ENDBRANCH  25  27
BRANCH  25  42
ATOM     42  CB  LEU A   2      27.007  -6.494 -19.480  0.00  0.00    +0.029 C 
BRANCH  42  43
ATOM     43  CG  LEU A   2      27.164  -7.048 -18.045  0.00  0.00    +0.002 C 
ATOM     44  CD2 LEU A   2      25.883  -6.800 -17.281  0.00  0.00    +0.000 C 
ATOM     45  CD1 LEU A   2      27.592  -8.541 -17.939  0.00  0.00    +0.000 C 
ENDBRANCH  42  43
ENDBRANCH  25  42
ENDBRANCH  21  25
ENDBRANCH  20  23
BRANCH  20  46
ATOM     46  CB  VAL A   3      28.604  -5.978 -25.113  0.00  0.00    +0.027 C 
ATOM     47  CG2 VAL A   3      29.956  -5.717 -24.512  0.00  0.00    +0.002 C 
ATOM     48  CG1 VAL A   3      28.420  -5.112 -26.377  0.00  0.00    +0.002 C 
ENDBRANCH  20  46
ENDBRANCH  16  20
ENDBRANCH  15  18
BRANCH  15  49
ATOM     49  CB  THR A   4      22.895  -5.239 -24.655  0.00  0.00    +0.137 C 
ATOM     50  CG2 THR A   4      22.454  -3.778 -24.323  0.00  0.00    +0.034 C 
BRANCH  49  51
ATOM     51  OG1 THR A   4      21.791  -5.913 -25.246  0.00  0.00    -0.382 OA
ATOM     52  HG1 THR A   4      22.041  -6.852 -25.434  0.00  0.00    +0.210 HD
ENDBRANCH  49  51
ENDBRANCH  15  49
ENDBRANCH  11  15
ENDBRANCH  10  13
BRANCH  10  53
ATOM     53  CB  HIS A   5      21.064  -4.083 -29.162  0.00  0.00    +0.076 C 
BRANCH  53  54
ATOM     54  CG  HIS A   5      21.184  -5.396 -29.869  0.00  0.00    +0.082 A 
ATOM     55  CD2 HIS A   5      20.797  -6.649 -29.504  0.00  0.00    +0.115 A 
ATOM     56  NE2 HIS A   5      21.129  -7.495 -30.538  0.00  0.00    -0.221 NA
ATOM     57  CE1 HIS A   5      21.725  -6.790 -31.491  0.00  0.00    +0.199 A 
ATOM     58  ND1 HIS A   5      21.768  -5.520 -31.115  0.00  0.00    -0.227 NA
ENDBRANCH  53  54
ENDBRANCH  10  53
ENDBRANCH   6  10
ENDBRANCH   5   8
BRANCH   5  59
ATOM     59  CB  LEU A   6      23.386   1.167 -29.239  0.00  0.00    +0.029 C 
BRANCH  59  60
ATOM     60  CG  LEU A   6      23.350   2.662 -28.831  0.00  0.00    +0.002 C 
ATOM     61  CD2 LEU A   6      23.266   2.811 -27.322  0.00  0.00    +0.000 C 
ATOM     62  CD1 LEU A   6      24.610   3.380 -29.389  0.00  0.00    +0.000 C 
ENDBRANCH  59  60
ENDBRANCH   5  59
ENDBRANCH   1   5
BRANCH   2  63
ATOM     63  CA  MET A   7      18.592   0.837 -29.449  0.00  0.00    +0.149 C 
BRANCH  63  64
ATOM     64  C   MET A   7      18.541   2.345 -29.503  0.00  0.00    +0.241 C 
ATOM     65  N   GLY A   8      19.028   2.994 -28.447  0.00  0.00    -0.295 N 
ATOM     66  H   GLY A   8      19.210   2.484 -27.559  0.00  0.00    +0.150 HD
ATOM     67  O   MET A   7      18.088   2.920 -30.492  0.00  0.00    -0.273 OA
BRANCH  65  68
ATOM     68  CA  GLY A   8      19.307   4.435 -28.543  0.00  0.00    +0.176 C 
BRANCH  68  69
ATOM     69  C   GLY A   8      18.201   5.383 -28.122  0.00  0.00    +0.243 C 
ATOM     70  N   ALA A   9      17.038   4.849 -27.770  0.00  0.00    -0.297 N 
ATOM     71  H   ALA A   9      16.892   3.832 -27.932  0.00  0.00    +0.150 HD
ATOM     72  O   GLY A   8      18.413   6.597 -28.111  0.00  0.00    -0.273 OA
BRANCH  70  73
ATOM     73  CA  ALA A   9      15.952   5.620 -27.165  0.00  0.00    +0.149 C 
ATOM     74  CB  ALA A   9      15.092   6.302 -28.263  0.00  0.00    +0.031 C 
BRANCH  73  75
ATOM     75  C   ALA A   9      15.101   4.649 -26.352  0.00  0.00    +0.241 C 
ATOM     76  N   ASP A  10      14.192   5.190 -25.541  0.00  0.00    -0.297 N 
ATOM     77  H   ASP A  10      14.222   6.214 -25.363  0.00  0.00    +0.150 HD
ATOM     78  O   ALA A   9      15.263   3.430 -26.469  0.00  0.00    -0.273 OA
BRANCH  76  79
ATOM     79  CA  ASP A  10      13.151   4.386 -24.891  0.00  0.00    +0.160 C 
BRANCH  79  80
ATOM     80  C   ASP A  10      11.772   4.816 -25.409  0.00  0.00    +0.241 C 
ATOM     81  N   LEU A  11      10.691   4.211 -24.903  0.00  0.00    -0.297 N 
ATOM     82  H   LEU A  11      10.807   3.504 -24.149  0.00  0.00    +0.150 HD
ATOM     83  O   ASP A  10      11.694   5.700 -26.261  0.00  0.00    -0.273 OA
BRANCH  81  84
ATOM     84  CA  LEU A  11       9.337   4.530 -25.397  0.00  0.00    +0.149 C 
BRANCH  84  85
ATOM     85  C   LEU A  11       8.931   6.037 -25.400  0.00  0.00    +0.241 C 
ATOM     86  N   ASN A  12       9.012   6.752 -24.264  0.00  0.00    -0.297 N 
ATOM     87  H   ASN A  12       9.174   6.251 -23.367  0.00  0.00    +0.150 HD
ATOM     88  O   LEU A  11       8.549   6.521 -26.459  0.00  0.00    -0.273 OA
BRANCH  86  89
ATOM     89  CA  ASN A  12       8.878   8.233 -24.242  0.00  0.00    +0.158 C 
BRANCH  89  90
ATOM     90  C   ASN A  12       9.666   8.990 -25.329  0.00  0.00    +0.241 C 
ATOM     91  N   ASN A  13      10.923   8.576 -25.541  0.00  0.00    -0.298 N 
ATOM     92  H   ASN A  13      11.252   7.765 -24.979  0.00  0.00    +0.150 HD
ATOM     93  O   ASN A  12       9.137   9.913 -25.932  0.00  0.00    -0.273 OA
BRANCH  91  94
ATOM     94  CA  ASN A  13      11.885   9.159 -26.494  0.00  0.00    +0.146 C 
BRANCH  94  95
ATOM     95  C   ASN A  13      11.490   8.971 -27.944  0.00  0.00    +0.227 C 
ATOM     96  O   ASN A  13      12.205   9.444 -28.849  0.00  0.00    -0.286 OA
ENDBRANCH  94  95
BRANCH  94  97
ATOM     97  CB  ASN A  13      13.246   8.466 -26.362  0.00  0.00    +0.112 C 
BRANCH  97  98
ATOM     98  CG  ASN A  13      14.095   9.000 -25.235  0.00  0.00    +0.222 C 
ATOM     99  OD1 ASN A  13      13.664   9.092 -24.065  0.00  0.00    -0.275 OA
ATOM    100  ND2 ASN A  13      15.343   9.322 -25.569  0.00  0.00    -0.329 N 
ATOM    101 HD21 ASN A  13      16.003   9.666 -24.843  0.00  0.00    +0.145 HD
ATOM    102 HD22 ASN A  13      15.658   9.229 -26.556  0.00  0.00    +0.145 HD
ENDBRANCH  97  98
ENDBRANCH  94  97
ENDBRANCH  91  94
ENDBRANCH  89  90
BRANCH  89 103
ATOM    103  CB  ASN A  12       9.270   8.806 -22.887  0.00  0.00    +0.114 C 
BRANCH 103 104
ATOM    104  CG  ASN A  12       8.634   8.064 -21.751  0.00  0.00    +0.222 C 
ATOM    105  ND2 ASN A  12       9.457   7.546 -20.850  0.00  0.00    -0.329 N 
ATOM    106 HD21 ASN A  12       9.077   6.994 -20.055  0.00  0.00    +0.145 HD
ATOM    107 HD22 ASN A  12      10.483   7.691 -20.939  0.00  0.00    +0.145 HD
ATOM    108  OD1 ASN A  12       7.411   7.922 -21.693  0.00  0.00    -0.275 OA
ENDBRANCH 103 104
ENDBRANCH  89 103
ENDBRANCH  86  89
ENDBRANCH  84  85
BRANCH  84 109
ATOM    109  CB  LEU A  11       8.253   3.652 -24.780  0.00  0.00    +0.029 C 
BRANCH 109 110
ATOM    110  CG  LEU A  11       7.023   3.426 -25.695  0.00  0.00    +0.002 C 
ATOM    111  CD2 LEU A  11       6.108   2.332 -25.188  0.00  0.00    +0.000 C 
ATOM    112  CD1 LEU A  11       7.402   3.152 -27.163  0.00  0.00    +0.000 C 
ENDBRANCH 109 110
ENDBRANCH  84 109
ENDBRANCH  81  84
ENDBRANCH  79  80
BRANCH  79 113
ATOM    113  CB  ASP A  10      13.255   4.479 -23.363  0.00  0.00    +0.143 C 
BRANCH 113 114
ATOM    114  CG  ASP A  10      13.020   5.880 -22.839  0.00  0.00    +0.367 C 
ATOM    115  OD2 ASP A  10      13.488   6.189 -21.747  0.00  0.00    -0.246 OA
ATOM    116  OD1 ASP A  10      12.348   6.675 -23.489  0.00  0.00    -0.246 OA
ENDBRANCH 113 114
ENDBRANCH  79 113
ENDBRANCH  76  79
ENDBRANCH  73  75
ENDBRANCH  70  73
ENDBRANCH  68  69
ENDBRANCH  65  68
ENDBRANCH  63  64
BRANCH  63 117
ATOM    117  CB  MET A   7      17.459   0.326 -28.606  0.00  0.00    +0.041 C 
BRANCH 117 118
ATOM    118  CG  MET A   7      17.596  -1.188 -28.293  0.00  0.00    +0.060 C 
BRANCH 118 119
ATOM    119  SD  MET A   7      17.537  -2.049 -29.852  0.00  0.00    -0.139 S 
ATOM    120  CE  MET A   7      15.842  -1.857 -30.359  0.00  0.00    +0.069 C 
ENDBRANCH 118 119
ENDBRANCH 117 118
ENDBRANCH  63 117
ENDBRANCH   2  63
TORSDOF 49
REMARK  Name = ../refined-set-2016/3hub/3hub_pocket.pdb
REMARK  195 active torsions:
REMARK  status: ('A' for Active; 'I' for Inactive)
REMARK    1  A    between atoms: _1  and  _3
REMARK    2  A    between atoms: _3  and  _4
REMARK    3  A    between atoms: _3  and  _6
REMARK    4  A    between atoms: _6  and  _7
REMARK    5  A    between atoms: _10  and  _11
REMARK    6  A    between atoms: _16  and  _18
REMARK    7  A    between atoms: _18  and  _19
REMARK    8  A    between atoms: _18  and  _21
REMARK    9  A    between atoms: _24  and  _26
REMARK   10  A    between atoms: _26  and  _27
REMARK   11  A    between atoms: _29  and  _31
REMARK   12  A    between atoms: _31  and  _32
REMARK   13  A    between atoms: _31  and  _34
REMARK   14  A    between atoms: _34  and  _35
REMARK   15  A    between atoms: _37  and  _39
REMARK   16  A    between atoms: _39  and  _40
REMARK   17  A    between atoms: _42  and  _44
REMARK   18  A    between atoms: _44  and  _45
REMARK   19  A    between atoms: _48  and  _50
REMARK   20  A    between atoms: _50  and  _51
REMARK   21  A    between atoms: _50  and  _53
REMARK   22  A    between atoms: _53  and  _54
REMARK   23  A    between atoms: _59  and  _60
REMARK   24  A    between atoms: _62  and  _64
REMARK   25  A    between atoms: _64  and  _65
REMARK   26  A    between atoms: _67  and  _69
REMARK   27  A    between atoms: _69  and  _70
REMARK   28  A    between atoms: _69  and  _72
REMARK   29  A    between atoms: _72  and  _73
REMARK   30  A    between atoms: _75  and  _77
REMARK   31  A    between atoms: _77  and  _78
REMARK   32  A    between atoms: _77  and  _80
REMARK   33  A    between atoms: _83  and  _85
REMARK   34  A    between atoms: _85  and  _86
REMARK   35  A    between atoms: _85  and  _88
REMARK   36  A    between atoms: _90  and  _92
REMARK   37  A    between atoms: _92  and  _93
REMARK   38  A    between atoms: _96  and  _98
REMARK   39  A    between atoms: _98  and  _99
REMARK   40  A    between atoms: _102  and  _104
REMARK   41  A    between atoms: _104  and  _105
REMARK   42  A    between atoms: _104  and  _107
REMARK   43  A    between atoms: _107  and  _108
REMARK   44  A    between atoms: _108  and  _109
REMARK   45  A    between atoms: _109  and  _110
REMARK   46  A    between atoms: _119  and  _121
REMARK   47  A    between atoms: _121  and  _122
REMARK   48  A    between atoms: _121  and  _124
REMARK   49  A    between atoms: _127  and  _129
REMARK   50  A    between atoms: _129  and  _130
REMARK   51  A    between atoms: _133  and  _135
REMARK   52  A    between atoms: _135  and  _136
REMARK   53  A    between atoms: _135  and  _138
REMARK   54  A    between atoms: _141  and  _143
REMARK   55  A    between atoms: _143  and  _144
REMARK   56  A    between atoms: _143  and  _146
REMARK   57  A    between atoms: _146  and  _147
REMARK   58  A    between atoms: _147  and  _148
REMARK   59  A    between atoms: _148  and  _149
REMARK   60  A    between atoms: _149  and  _150
REMARK   61  A    between atoms: _154  and  _156
REMARK   62  A    between atoms: _156  and  _157
REMARK   63  A    between atoms: _156  and  _159
REMARK   64  A    between atoms: _159  and  _160
REMARK   65  A    between atoms: _160  and  _161
REMARK   66  A    between atoms: _161  and  _162
REMARK   67  A    between atoms: _162  and  _163
REMARK   68  A    between atoms: _167  and  _169
REMARK   69  A    between atoms: _169  and  _170
REMARK   70  A    between atoms: _169  and  _172
REMARK   71  A    between atoms: _172  and  _173
REMARK   72  A    between atoms: _176  and  _178
REMARK   73  A    between atoms: _178  and  _179
REMARK   74  A    between atoms: _178  and  _181
REMARK   75  A    between atoms: _181  and  _182
REMARK   76  A    between atoms: _182  and  _183
REMARK   77  A    between atoms: _186  and  _188
REMARK   78  A    between atoms: _188  and  _189
REMARK   79  A    between atoms: _188  and  _191
REMARK   80  A    between atoms: _191  and  _192
REMARK   81  A    between atoms: _195  and  _197
REMARK   82  A    between atoms: _197  and  _198
REMARK   83  A    between atoms: _197  and  _200
REMARK   84  A    between atoms: _200  and  _201
REMARK   85  A    between atoms: _204  and  _206
REMARK   86  A    between atoms: _206  and  _207
REMARK   87  A    between atoms: _209  and  _211
REMARK   88  A    between atoms: _211  and  _212
REMARK   89  A    between atoms: _211  and  _214
REMARK   90  A    between atoms: _214  and  _215
REMARK   91  A    between atoms: _218  and  _220
REMARK   92  A    between atoms: _220  and  _221
REMARK   93  A    between atoms: _220  and  _223
REMARK   94  A    between atoms: _223  and  _224
REMARK   95  A    between atoms: _227  and  _229
REMARK   96  A    between atoms: _229  and  _230
REMARK   97  A    between atoms: _229  and  _232
REMARK   98  A    between atoms: _232  and  _233
REMARK   99  A    between atoms: _236  and  _238
REMARK  100  A    between atoms: _238  and  _239
REMARK  101  A    between atoms: _238  and  _241
REMARK  102  A    between atoms: _244  and  _246
REMARK  103  A    between atoms: _246  and  _247
REMARK  104  A    between atoms: _246  and  _249
REMARK  105  A    between atoms: _249  and  _250
REMARK  106  A    between atoms: _255  and  _256
REMARK  107  A    between atoms: _258  and  _260
REMARK  108  A    between atoms: _260  and  _261
REMARK  109  A    between atoms: _260  and  _263
REMARK  110  A    between atoms: _263  and  _264
REMARK  111  A    between atoms: _267  and  _269
REMARK  112  A    between atoms: _269  and  _270
REMARK  113  A    between atoms: _269  and  _272
REMARK  114  A    between atoms: _275  and  _277
REMARK  115  A    between atoms: _277  and  _278
REMARK  116  A    between atoms: _277  and  _280
REMARK  117  A    between atoms: _280  and  _281
REMARK  118  A    between atoms: _284  and  _286
REMARK  119  A    between atoms: _286  and  _287
REMARK  120  A    between atoms: _286  and  _289
REMARK  121  A    between atoms: _289  and  _290
REMARK  122  A    between atoms: _295  and  _297
REMARK  123  A    between atoms: _297  and  _298
REMARK  124  A    between atoms: _297  and  _300
REMARK  125  A    between atoms: _300  and  _301
REMARK  126  A    between atoms: _304  and  _306
REMARK  127  A    between atoms: _306  and  _307
REMARK  128  A    between atoms: _306  and  _309
REMARK  129  A    between atoms: _309  and  _310
REMARK  130  A    between atoms: _310  and  _311
REMARK  131  A    between atoms: _313  and  _315
REMARK  132  A    between atoms: _315  and  _316
REMARK  133  A    between atoms: _318  and  _320
REMARK  134  A    between atoms: _320  and  _321
REMARK  135  A    between atoms: _324  and  _326
REMARK  136  A    between atoms: _326  and  _327
REMARK  137  A    between atoms: _326  and  _329
REMARK  138  A    between atoms: _329  and  _330
REMARK  139  A    between atoms: _333  and  _335
REMARK  140  A    between atoms: _335  and  _336
REMARK  141  A    between atoms: _335  and  _338
REMARK  142  A    between atoms: _338  and  _339
REMARK  143  A    between atoms: _342  and  _344
REMARK  144  A    between atoms: _344  and  _345
REMARK  145  A    between atoms: _344  and  _347
REMARK  146  A    between atoms: _347  and  _348
REMARK  147  A    between atoms: _353  and  _355
REMARK  148  A    between atoms: _355  and  _356
REMARK  149  A    between atoms: _355  and  _358
REMARK  150  A    between atoms: _358  and  _359
REMARK  151  A    between atoms: _365  and  _366
REMARK  152  A    between atoms: _371  and  _373
REMARK  153  A    between atoms: _373  and  _374
REMARK  154  A    between atoms: _373  and  _376
REMARK  155  A    between atoms: _376  and  _377
REMARK  156  A    between atoms: _379  and  _381
REMARK  157  A    between atoms: _381  and  _382
REMARK  158  A    between atoms: _381  and  _384
REMARK  159  A    between atoms: _384  and  _385
REMARK  160  A    between atoms: _390  and  _392
REMARK  161  A    between atoms: _392  and  _393
REMARK  162  A    between atoms: _392  and  _395
REMARK  163  A    between atoms: _395  and  _396
REMARK  164  A    between atoms: _399  and  _401
REMARK  165  A    between atoms: _401  and  _402
REMARK  166  A    between atoms: _405  and  _407
REMARK  167  A    between atoms: _407  and  _408
REMARK  168  A    between atoms: _407  and  _410
REMARK  169  A    between atoms: _413  and  _415
REMARK  170  A    between atoms: _415  and  _416
REMARK  171  A    between atoms: _415  and  _418
REMARK  172  A    between atoms: _418  and  _419
REMARK  173  A    between atoms: _424  and  _426
REMARK  174  A    between atoms: _426  and  _427
REMARK  175  A    between atoms: _426  and  _429
REMARK  176  A    between atoms: _429  and  _430
REMARK  177  A    between atoms: _430  and  _431
REMARK  178  A    between atoms: _431  and  _432
REMARK  179  A    between atoms: _432  and  _433
REMARK  180  A    between atoms: _437  and  _439
REMARK  181  A    between atoms: _439  and  _440
REMARK  182  A    between atoms: _439  and  _442
REMARK  183  A    between atoms: _442  and  _443
REMARK  184  A    between atoms: _446  and  _448
REMARK  185  A    between atoms: _448  and  _449
REMARK  186  A    between atoms: _448  and  _451
REMARK  187  A    between atoms: _451  and  _452
REMARK  188  A    between atoms: _455  and  _457
REMARK  189  A    between atoms: _457  and  _458
REMARK  190  A    between atoms: _457  and  _460
REMARK  191  A    between atoms: _460  and  _461
REMARK  192  A    between atoms: _464  and  _466
REMARK  193  A    between atoms: _466  and  _467
REMARK  194  A    between atoms: _466  and  _469
REMARK  195  A    between atoms: _469  and  _470
REMARK                            x       y       z     vdW  Elec       q    Type
REMARK                         _______ _______ _______ _____ _____    ______ ____
ROOT
ATOM      1  CA  LEU A   4      11.229  -0.281 -23.098  0.00  0.00    +0.149 C 
ENDROOT
BRANCH   1   4
ATOM      2  C   ASN A   3      11.865  -0.549 -20.803  0.00  0.00    +0.241 C 
ATOM      3  O   ASN A   3      12.011  -1.762 -20.945  0.00  0.00    -0.273 OA
ATOM      4  N   LEU A   4      11.498   0.246 -21.794  0.00  0.00    -0.297 N 
ATOM      5  H   LEU A   4      11.403   1.268 -21.624  0.00  0.00    +0.150 HD
BRANCH   2   6
ATOM      6  CA  ASN A   3      12.008   0.111 -19.443  0.00  0.00    +0.158 C 
BRANCH   6   8
ATOM      7  C   SER A   2      12.279   2.529 -19.563  0.00  0.00    +0.243 C 
ATOM      8  N   ASN A   3      11.478   1.475 -19.411  0.00  0.00    -0.297 N 
ATOM      9  H   ASN A   3      10.459   1.624 -19.267  0.00  0.00    +0.150 HD
ATOM     10  O   SER A   2      13.515   2.443 -19.770  0.00  0.00    -0.273 OA
BRANCH   7  11
ATOM     11  CA  SER A   2      11.571   3.887 -19.567  0.00  0.00    +0.178 C 
BRANCH  11  13
ATOM     12  C   PRO A   1       9.540   3.344 -20.924  0.00  0.00    +0.239 C 
ATOM     13  N   SER A   2      10.099   3.784 -19.771  0.00  0.00    -0.295 N 
ATOM     14  H   SER A   2       9.470   4.063 -18.991  0.00  0.00    +0.150 HD
ATOM     15  O   PRO A   1      10.180   3.101 -21.948  0.00  0.00    -0.274 OA
BRANCH  12  20
ATOM     16  N   PRO A   1       7.343   2.750 -19.779  0.00  0.00    -0.210 NA
ATOM     17  CD  PRO A   1       6.203   3.646 -19.459  0.00  0.00    +0.089 C 
ATOM     18  CG  PRO A   1       5.856   4.287 -20.800  0.00  0.00    +0.021 C 
ATOM     19  CB  PRO A   1       7.317   4.536 -21.340  0.00  0.00    +0.028 C 
ATOM     20  CA  PRO A   1       8.022   3.191 -21.007  0.00  0.00    +0.149 C 
ENDBRANCH  12  20
ENDBRANCH  11  13
BRANCH  11  21
ATOM     21  CB  SER A   2      11.968   4.675 -18.309  0.00  0.00    +0.166 C 
BRANCH  21  22
ATOM     22  OG  SER A   2      11.104   4.385 -17.216  0.00  0.00    -0.380 OA
ATOM     23  H   SER A   2      10.175   4.628 -17.458  0.00  0.00    +0.211 HD
ENDBRANCH  21  22
ENDBRANCH  11  21
ENDBRANCH   7  11
ENDBRANCH   6   8
BRANCH   6  24
ATOM     24  CB  ASN A   3      11.307  -0.726 -18.375  0.00  0.00    +0.114 C 
BRANCH  24  25
ATOM     25  CG  ASN A   3      11.998  -0.648 -17.058  0.00  0.00    +0.222 C 
ATOM     26  OD1 ASN A   3      11.369  -0.855 -16.012  0.00  0.00    -0.275 OA
ATOM     27  ND2 ASN A   3      13.306  -0.336 -17.076  0.00  0.00    -0.329 N 
ATOM     28 HD21 ASN A   3      13.835  -0.259 -16.184  0.00  0.00    +0.145 HD
ATOM     29 HD22 ASN A   3      13.789  -0.171 -17.982  0.00  0.00    +0.145 HD
ENDBRANCH  24  25
ENDBRANCH   6  24
ENDBRANCH   2   6
ENDBRANCH   1   4
BRANCH   1  30
ATOM     30  C   LEU A   4      12.097   0.517 -24.036  0.00  0.00    +0.241 C 
ATOM     31  O   LEU A   4      11.798   1.682 -24.293  0.00  0.00    -0.273 OA
ATOM     32  N   ALA A   5      13.148  -0.151 -24.522  0.00  0.00    -0.297 N 
ATOM     33  H   ALA A   5      13.294  -1.110 -24.146  0.00  0.00    +0.150 HD
BRANCH  32  34
ATOM     34  CA  ALA A   5      14.107   0.299 -25.508  0.00  0.00    +0.149 C 
ATOM     35  CB  ALA A   5      15.428  -0.523 -25.368  0.00  0.00    +0.031 C 
BRANCH  34  36
ATOM     36  C   ALA A   5      13.558   0.193 -26.931  0.00  0.00    +0.241 C 
ATOM     37  O   ALA A   5      13.000  -0.834 -27.320  0.00  0.00    -0.273 OA
ATOM     38  N   VAL A   6      13.704   1.265 -27.709  0.00  0.00    -0.297 N 
ATOM     39  H   VAL A   6      14.267   2.070 -27.367  0.00  0.00    +0.150 HD
BRANCH  38  40
ATOM     40  CA  VAL A   6      13.086   1.333 -29.039  0.00  0.00    +0.149 C 
BRANCH  40  41
ATOM     41  C   VAL A   6      14.064   1.986 -29.985  0.00  0.00    +0.241 C 
ATOM     42  O   VAL A   6      14.645   3.015 -29.657  0.00  0.00    -0.273 OA
ATOM     43  N   ASN A   7      14.311   1.374 -31.137  0.00  0.00    -0.298 N 
ATOM     44  H   ASN A   7      13.934   0.422 -31.322  0.00  0.00    +0.150 HD
BRANCH  43  45
ATOM     45  CA  ASN A   7      15.125   2.063 -32.146  0.00  0.00    +0.146 C 
BRANCH  45  46
ATOM     46  C   ASN A   7      14.214   2.922 -33.022  0.00  0.00    +0.227 C 
ATOM     47  O   ASN A   7      12.973   2.972 -32.814  0.00  0.00    -0.286 OA
ENDBRANCH  45  46
BRANCH  45  48
ATOM     48  CB  ASN A   7      15.980   1.113 -32.975  0.00  0.00    +0.112 C 
BRANCH  48  49
ATOM     49  CG  ASN A   7      15.177   0.111 -33.760  0.00  0.00    +0.222 C 
ATOM     50  ND2 ASN A   7      15.812  -0.982 -34.083  0.00  0.00    -0.329 N 
ATOM     51 HD21 ASN A   7      16.799  -1.118 -33.784  0.00  0.00    +0.145 HD
ATOM     52 HD22 ASN A   7      15.332  -1.717 -34.640  0.00  0.00    +0.145 HD
ATOM     53  OD1 ASN A   7      13.999   0.315 -34.096  0.00  0.00    -0.275 OA
ENDBRANCH  48  49
ENDBRANCH  45  48
ENDBRANCH  43  45
ENDBRANCH  40  41
BRANCH  40  54
ATOM     54  CB  VAL A   6      11.738   2.112 -29.031  0.00  0.00    +0.027 C 
ATOM     55  CG2 VAL A   6      10.824   1.622 -27.888  0.00  0.00    +0.002 C 
ATOM     56  CG1 VAL A   6      10.980   1.900 -30.293  0.00  0.00    +0.002 C 
ENDBRANCH  40  54
ENDBRANCH  38  40
ENDBRANCH  34  36
ENDBRANCH  32  34
ENDBRANCH   1  30
BRANCH   1  57
ATOM     57  CB  LEU A   4       9.730  -0.122 -23.451  0.00  0.00    +0.029 C 
BRANCH  57  58
ATOM     58  CG  LEU A   4       8.704  -0.892 -22.609  0.00  0.00    +0.002 C 
ATOM     59  CD2 LEU A   4       8.818  -2.500 -22.717  0.00  0.00    +0.000 C 
ATOM     60  CD1 LEU A   4       7.298  -0.365 -22.883  0.00  0.00    +0.000 C 
ENDBRANCH  57  58
ENDBRANCH   1  57
TORSDOF 22
REMARK  Name = ../refined-set-2016/3hub/3hub_pocket.pdb
REMARK  195 active torsions:
REMARK  status: ('A' for Active; 'I' for Inactive)
REMARK    1  A    between atoms: _1  and  _3
REMARK    2  A    between atoms: _3  and  _4
REMARK    3  A    between atoms: _3  and  _6
REMARK    4  A    between atoms: _6  and  _7
REMARK    5  A    between atoms: _10  and  _11
REMARK    6  A    between atoms: _16  and  _18
REMARK    7  A    between atoms: _18  and  _19
REMARK    8  A    between atoms: _18  and  _21
REMARK    9  A    between atoms: _24  and  _26
REMARK   10  A    between atoms: _26  and  _27
REMARK   11  A    between atoms: _29  and  _31
REMARK   12  A    between atoms: _31  and  _32
REMARK   13  A    between atoms: _31  and  _34
REMARK   14  A    between atoms: _34  and  _35
REMARK   15  A    between atoms: _37  and  _39
REMARK   16  A    between atoms: _39  and  _40
REMARK   17  A    between atoms: _42  and  _44
REMARK   18  A    between atoms: _44  and  _45
REMARK   19  A    between atoms: _48  and  _50
REMARK   20  A    between atoms: _50  and  _51
REMARK   21  A    between atoms: _50  and  _53
REMARK   22  A    between atoms: _53  and  _54
REMARK   23  A    between atoms: _59  and  _60
REMARK   24  A    between atoms: _62  and  _64
REMARK   25  A    between atoms: _64  and  _65
REMARK   26  A    between atoms: _67  and  _69
REMARK   27  A    between atoms: _69  and  _70
REMARK   28  A    between atoms: _69  and  _72
REMARK   29  A    between atoms: _72  and  _73
REMARK   30  A    between atoms: _75  and  _77
REMARK   31  A    between atoms: _77  and  _78
REMARK   32  A    between atoms: _77  and  _80
REMARK   33  A    between atoms: _83  and  _85
REMARK   34  A    between atoms: _85  and  _86
REMARK   35  A    between atoms: _85  and  _88
REMARK   36  A    between atoms: _90  and  _92
REMARK   37  A    between atoms: _92  and  _93
REMARK   38  A    between atoms: _96  and  _98
REMARK   39  A    between atoms: _98  and  _99
REMARK   40  A    between atoms: _102  and  _104
REMARK   41  A    between atoms: _104  and  _105
REMARK   42  A    between atoms: _104  and  _107
REMARK   43  A    between atoms: _107  and  _108
REMARK   44  A    between atoms: _108  and  _109
REMARK   45  A    between atoms: _109  and  _110
REMARK   46  A    between atoms: _119  and  _121
REMARK   47  A    between atoms: _121  and  _122
REMARK   48  A    between atoms: _121  and  _124
REMARK   49  A    between atoms: _127  and  _129
REMARK   50  A    between atoms: _129  and  _130
REMARK   51  A    between atoms: _133  and  _135
REMARK   52  A    between atoms: _135  and  _136
REMARK   53  A    between atoms: _135  and  _138
REMARK   54  A    between atoms: _141  and  _143
REMARK   55  A    between atoms: _143  and  _144
REMARK   56  A    between atoms: _143  and  _146
REMARK   57  A    between atoms: _146  and  _147
REMARK   58  A    between atoms: _147  and  _148
REMARK   59  A    between atoms: _148  and  _149
REMARK   60  A    between atoms: _149  and  _150
REMARK   61  A    between atoms: _154  and  _156
REMARK   62  A    between atoms: _156  and  _157
REMARK   63  A    between atoms: _156  and  _159
REMARK   64  A    between atoms: _159  and  _160
REMARK   65  A    between atoms: _160  and  _161
REMARK   66  A    between atoms: _161  and  _162
REMARK   67  A    between atoms: _162  and  _163
REMARK   68  A    between atoms: _167  and  _169
REMARK   69  A    between atoms: _169  and  _170
REMARK   70  A    between atoms: _169  and  _172
REMARK   71  A    between atoms: _172  and  _173
REMARK   72  A    between atoms: _176  and  _178
REMARK   73  A    between atoms: _178  and  _179
REMARK   74  A    between atoms: _178  and  _181
REMARK   75  A    between atoms: _181  and  _182
REMARK   76  A    between atoms: _182  and  _183
REMARK   77  A    between atoms: _186  and  _188
REMARK   78  A    between atoms: _188  and  _189
REMARK   79  A    between atoms: _188  and  _191
REMARK   80  A    between atoms: _191  and  _192
REMARK   81  A    between atoms: _195  and  _197
REMARK   82  A    between atoms: _197  and  _198
REMARK   83  A    between atoms: _197  and  _200
REMARK   84  A    between atoms: _200  and  _201
REMARK   85  A    between atoms: _204  and  _206
REMARK   86  A    between atoms: _206  and  _207
REMARK   87  A    between atoms: _209  and  _211
REMARK   88  A    between atoms: _211  and  _212
REMARK   89  A    between atoms: _211  and  _214
REMARK   90  A    between atoms: _214  and  _215
REMARK   91  A    between atoms: _218  and  _220
REMARK   92  A    between atoms: _220  and  _221
REMARK   93  A    between atoms: _220  and  _223
REMARK   94  A    between atoms: _223  and  _224
REMARK   95  A    between atoms: _227  and  _229
REMARK   96  A    between atoms: _229  and  _230
REMARK   97  A    between atoms: _229  and  _232
REMARK   98  A    between atoms: _232  and  _233
REMARK   99  A    between atoms: _236  and  _238
REMARK  100  A    between atoms: _238  and  _239
REMARK  101  A    between atoms: _238  and  _241
REMARK  102  A    between atoms: _244  and  _246
REMARK  103  A    between atoms: _246  and  _247
REMARK  104  A    between atoms: _246  and  _249
REMARK  105  A    between atoms: _249  and  _250
REMARK  106  A    between atoms: _255  and  _256
REMARK  107  A    between atoms: _258  and  _260
REMARK  108  A    between atoms: _260  and  _261
REMARK  109  A    between atoms: _260  and  _263
REMARK  110  A    between atoms: _263  and  _264
REMARK  111  A    between atoms: _267  and  _269
REMARK  112  A    between atoms: _269  and  _270
REMARK  113  A    between atoms: _269  and  _272
REMARK  114  A    between atoms: _275  and  _277
REMARK  115  A    between atoms: _277  and  _278
REMARK  116  A    between atoms: _277  and  _280
REMARK  117  A    between atoms: _280  and  _281
REMARK  118  A    between atoms: _284  and  _286
REMARK  119  A    between atoms: _286  and  _287
REMARK  120  A    between atoms: _286  and  _289
REMARK  121  A    between atoms: _289  and  _290
REMARK  122  A    between atoms: _295  and  _297
REMARK  123  A    between atoms: _297  and  _298
REMARK  124  A    between atoms: _297  and  _300
REMARK  125  A    between atoms: _300  and  _301
REMARK  126  A    between atoms: _304  and  _306
REMARK  127  A    between atoms: _306  and  _307
REMARK  128  A    between atoms: _306  and  _309
REMARK  129  A    between atoms: _309  and  _310
REMARK  130  A    between atoms: _310  and  _311
REMARK  131  A    between atoms: _313  and  _315
REMARK  132  A    between atoms: _315  and  _316
REMARK  133  A    between atoms: _318  and  _320
REMARK  134  A    between atoms: _320  and  _321
REMARK  135  A    between atoms: _324  and  _326
REMARK  136  A    between atoms: _326  and  _327
REMARK  137  A    between atoms: _326  and  _329
REMARK  138  A    between atoms: _329  and  _330
REMARK  139  A    between atoms: _333  and  _335
REMARK  140  A    between atoms: _335  and  _336
REMARK  141  A    between atoms: _335  and  _338
REMARK  142  A    between atoms: _338  and  _339
REMARK  143  A    between atoms: _342  and  _344
REMARK  144  A    between atoms: _344  and  _345
REMARK  145  A    between atoms: _344  and  _347
REMARK  146  A    between atoms: _347  and  _348
REMARK  147  A    between atoms: _353  and  _355
REMARK  148  A    between atoms: _355  and  _356
REMARK  149  A    between atoms: _355  and  _358
REMARK  150  A    between atoms: _358  and  _359
REMARK  151  A    between atoms: _365  and  _366
REMARK  152  A    between atoms: _371  and  _373
REMARK  153  A    between atoms: _373  and  _374
REMARK  154  A    between atoms: _373  and  _376
REMARK  155  A    between atoms: _376  and  _377
REMARK  156  A    between atoms: _379  and  _381
REMARK  157  A    between atoms: _381  and  _382
REMARK  158  A    between atoms: _381  and  _384
REMARK  159  A    between atoms: _384  and  _385
REMARK  160  A    between atoms: _390  and  _392
REMARK  161  A    between atoms: _392  and  _393
REMARK  162  A    between atoms: _392  and  _395
REMARK  163  A    between atoms: _395  and  _396
REMARK  164  A    between atoms: _399  and  _401
REMARK  165  A    between atoms: _401  and  _402
REMARK  166  A    between atoms: _405  and  _407
REMARK  167  A    between atoms: _407  and  _408
REMARK  168  A    between atoms: _407  and  _410
REMARK  169  A    between atoms: _413  and  _415
REMARK  170  A    between atoms: _415  and  _416
REMARK  171  A    between atoms: _415  and  _418
REMARK  172  A    between atoms: _418  and  _419
REMARK  173  A    between atoms: _424  and  _426
REMARK  174  A    between atoms: _426  and  _427
REMARK  175  A    between atoms: _426  and  _429
REMARK  176  A    between atoms: _429  and  _430
REMARK  177  A    between atoms: _430  and  _431
REMARK  178  A    between atoms: _431  and  _432
REMARK  179  A    between atoms: _432  and  _433
REMARK  180  A    between atoms: _437  and  _439
REMARK  181  A    between atoms: _439  and  _440
REMARK  182  A    between atoms: _439  and  _442
REMARK  183  A    between atoms: _442  and  _443
REMARK  184  A    between atoms: _446  and  _448
REMARK  185  A    between atoms: _448  and  _449
REMARK  186  A    between atoms: _448  and  _451
REMARK  187  A    between atoms: _451  and  _452
REMARK  188  A    between atoms: _455  and  _457
REMARK  189  A    between atoms: _457  and  _458
REMARK  190  A    between atoms: _457  and  _460
REMARK  191  A    between atoms: _460  and  _461
REMARK  192  A    between atoms: _464  and  _466
REMARK  193  A    between atoms: _466  and  _467
REMARK  194  A    between atoms: _466  and  _469
REMARK  195  A    between atoms: _469  and  _470
REMARK                            x       y       z     vdW  Elec       q    Type
REMARK                         _______ _______ _______ _____ _____    ______ ____
ROOT
ATOM      1  CA  LEU A   3      14.838  -4.073 -20.288  0.00  0.00    +0.149 C 
ENDROOT
BRANCH   1   2
ATOM      2  C   LEU A   3      14.489  -4.175 -18.812  0.00  0.00    +0.241 C 
ATOM      3  N   ASP A   4      15.454  -4.634 -18.004  0.00  0.00    -0.297 N 
ATOM      4  H   ASP A   4      16.287  -5.071 -18.448  0.00  0.00    +0.150 HD
ATOM      5  O   LEU A   3      13.349  -3.884 -18.436  0.00  0.00    -0.273 OA
BRANCH   3   6
ATOM      6  CA  ASP A   4      15.420  -4.564 -16.505  0.00  0.00    +0.160 C 
BRANCH   6   7
ATOM      7  C   ASP A   4      14.477  -5.567 -15.821  0.00  0.00    +0.241 C 
ATOM      8  O   ASP A   4      13.881  -5.254 -14.764  0.00  0.00    -0.273 OA
ATOM      9  N   PHE A   5      14.413  -6.779 -16.397  0.00  0.00    -0.298 N 
ATOM     10  H   PHE A   5      15.232  -7.088 -16.958  0.00  0.00    +0.150 HD
BRANCH   9  11
ATOM     11  CA  PHE A   5      13.261  -7.712 -16.293  0.00  0.00    +0.141 C 
BRANCH  11  12
ATOM     12  C   PHE A   5      13.265  -8.719 -15.169  0.00  0.00    +0.227 C 
ATOM     13  O   PHE A   5      13.789  -9.804 -15.347  0.00  0.00    -0.286 OA
ENDBRANCH  11  12
BRANCH  11  14
ATOM     14  CB  PHE A   5      13.185  -8.513 -17.595  0.00  0.00    +0.054 C 
BRANCH  14  15
ATOM     15  CG  PHE A   5      14.509  -8.684 -18.237  0.00  0.00    -0.020 A 
ATOM     16  CD2 PHE A   5      15.305  -9.765 -17.921  0.00  0.00    -0.004 A 
ATOM     17  CE2 PHE A   5      16.557  -9.886 -18.489  0.00  0.00    -0.000 A 
ATOM     18  CZ  PHE A   5      17.027  -8.917 -19.390  0.00  0.00    -0.000 A 
ATOM     19  CE1 PHE A   5      16.255  -7.830 -19.705  0.00  0.00    -0.000 A 
ATOM     20  CD1 PHE A   5      14.990  -7.714 -19.124  0.00  0.00    -0.004 A 
ENDBRANCH  14  15
ENDBRANCH  11  14
ENDBRANCH   9  11
ENDBRANCH   6   7
BRANCH   6  21
ATOM     21  CB  ASP A   4      14.997  -3.172 -16.054  0.00  0.00    +0.143 C 
BRANCH  21  22
ATOM     22  CG  ASP A   4      16.116  -2.365 -15.465  0.00  0.00    +0.367 C 
ATOM     23  OD2 ASP A   4      17.207  -2.908 -15.157  0.00  0.00    -0.246 OA
ATOM     24  OD1 ASP A   4      15.858  -1.151 -15.284  0.00  0.00    -0.246 OA
ENDBRANCH  21  22
ENDBRANCH   6  21
ENDBRANCH   3   6
ENDBRANCH   1   2
BRANCH   1  26
ATOM     25  C   ILE A   2      13.434  -5.053 -21.951  0.00  0.00    +0.241 C 
ATOM     26  N   LEU A   3      13.655  -4.059 -21.120  0.00  0.00    -0.297 N 
ATOM     27  H   LEU A   3      12.983  -3.267 -21.061  0.00  0.00    +0.150 HD
ATOM     28  O   ILE A   2      14.221  -6.018 -22.059  0.00  0.00    -0.273 OA
BRANCH  25  29
ATOM     29  CA  ILE A   2      12.168  -4.980 -22.756  0.00  0.00    +0.148 C 
BRANCH  29  31
ATOM     30  C   LYS A   1      12.900  -4.261 -24.965  0.00  0.00    +0.238 C 
ATOM     31  N   ILE A   2      12.484  -5.229 -24.152  0.00  0.00    -0.297 N 
ATOM     32  H   ILE A   2      12.382  -6.193 -24.528  0.00  0.00    +0.150 HD
ATOM     33  O   LYS A   1      13.071  -3.076 -24.598  0.00  0.00    -0.274 OA
BRANCH  30  34
ATOM     34  CA  LYS A   1      13.245  -4.690 -26.387  0.00  0.00    +0.145 C 
BRANCH  34  35
ATOM     35  N   LYS A   1      12.773  -3.681 -27.356  0.00  0.00    -0.238 NA
ATOM     36  H   LYS A   1      13.057  -2.691 -27.215  0.00  0.00    +0.142 HD
ENDBRANCH  34  35
BRANCH  34  37
ATOM     37  CB  LYS A   1      14.757  -4.895 -26.517  0.00  0.00    +0.026 C 
BRANCH  37  38
ATOM     38  CG  LYS A   1      15.197  -5.388 -27.917  0.00  0.00    -0.000 C 
BRANCH  38  39
ATOM     39  CD  LYS A   1      16.709  -5.400 -28.082  0.00  0.00    -0.024 C 
BRANCH  39  40
ATOM     40  CE  LYS A   1      17.096  -5.707 -29.493  0.00  0.00    -0.086 C 
BRANCH  40  41
ATOM     41  NZ  LYS A   1      16.370  -6.917 -29.943  0.00  0.00    +0.380 N 
ATOM     42  HZ1 LYS A   1      16.620  -7.718 -29.329  0.00  0.00    -0.089 HD
ATOM     43  HZ2 LYS A   1      15.346  -6.745 -29.890  0.00  0.00    -0.089 HD
ATOM     44  HZ3 LYS A   1      16.636  -7.135 -30.925  0.00  0.00    -0.089 HD
ENDBRANCH  40  41
ENDBRANCH  39  40
ENDBRANCH  38  39
ENDBRANCH  37  38
ENDBRANCH  34  37
ENDBRANCH  30  34
ENDBRANCH  29  31
BRANCH  29  45
ATOM     45  CB  ILE A   2      11.173  -6.041 -22.204  0.00  0.00    +0.027 C 
ATOM     46  CG2 ILE A   2      11.017  -5.953 -20.651  0.00  0.00    +0.002 C 
BRANCH  45  47
ATOM     47  CG1 ILE A   2       9.820  -6.017 -22.953  0.00  0.00    +0.002 C 
ATOM     48  CD1 ILE A   2       8.883  -7.236 -22.636  0.00  0.00    +0.000 C 
ENDBRANCH  45  47
ENDBRANCH  29  45
ENDBRANCH  25  29
ENDBRANCH   1  26
BRANCH   1  49
ATOM     49  CB  LEU A   3      15.729  -2.888 -20.604  0.00  0.00    +0.029 C 
BRANCH  49  50
ATOM     50  CG  LEU A   3      15.446  -1.414 -20.392  0.00  0.00    +0.002 C 
ATOM     51  CD2 LEU A   3      16.704  -0.749 -19.815  0.00  0.00    +0.000 C 
ATOM     52  CD1 LEU A   3      15.077  -0.729 -21.678  0.00  0.00    +0.000 C 
ENDBRANCH  49  50
ENDBRANCH   1  49
TORSDOF 23
REMARK  Name = ../refined-set-2016/3hub/3hub_pocket.pdb
REMARK  195 active torsions:
REMARK  status: ('A' for Active; 'I' for Inactive)
REMARK    1  A    between atoms: _1  and  _3
REMARK    2  A    between atoms: _3  and  _4
REMARK    3  A    between atoms: _3  and  _6
REMARK    4  A    between atoms: _6  and  _7
REMARK    5  A    between atoms: _10  and  _11
REMARK    6  A    between atoms: _16  and  _18
REMARK    7  A    between atoms: _18  and  _19
REMARK    8  A    between atoms: _18  and  _21
REMARK    9  A    between atoms: _24  and  _26
REMARK   10  A    between atoms: _26  and  _27
REMARK   11  A    between atoms: _29  and  _31
REMARK   12  A    between atoms: _31  and  _32
REMARK   13  A    between atoms: _31  and  _34
REMARK   14  A    between atoms: _34  and  _35
REMARK   15  A    between atoms: _37  and  _39
REMARK   16  A    between atoms: _39  and  _40
REMARK   17  A    between atoms: _42  and  _44
REMARK   18  A    between atoms: _44  and  _45
REMARK   19  A    between atoms: _48  and  _50
REMARK   20  A    between atoms: _50  and  _51
REMARK   21  A    between atoms: _50  and  _53
REMARK   22  A    between atoms: _53  and  _54
REMARK   23  A    between atoms: _59  and  _60
REMARK   24  A    between atoms: _62  and  _64
REMARK   25  A    between atoms: _64  and  _65
REMARK   26  A    between atoms: _67  and  _69
REMARK   27  A    between atoms: _69  and  _70
REMARK   28  A    between atoms: _69  and  _72
REMARK   29  A    between atoms: _72  and  _73
REMARK   30  A    between atoms: _75  and  _77
REMARK   31  A    between atoms: _77  and  _78
REMARK   32  A    between atoms: _77  and  _80
REMARK   33  A    between atoms: _83  and  _85
REMARK   34  A    between atoms: _85  and  _86
REMARK   35  A    between atoms: _85  and  _88
REMARK   36  A    between atoms: _90  and  _92
REMARK   37  A    between atoms: _92  and  _93
REMARK   38  A    between atoms: _96  and  _98
REMARK   39  A    between atoms: _98  and  _99
REMARK   40  A    between atoms: _102  and  _104
REMARK   41  A    between atoms: _104  and  _105
REMARK   42  A    between atoms: _104  and  _107
REMARK   43  A    between atoms: _107  and  _108
REMARK   44  A    between atoms: _108  and  _109
REMARK   45  A    between atoms: _109  and  _110
REMARK   46  A    between atoms: _119  and  _121
REMARK   47  A    between atoms: _121  and  _122
REMARK   48  A    between atoms: _121  and  _124
REMARK   49  A    between atoms: _127  and  _129
REMARK   50  A    between atoms: _129  and  _130
REMARK   51  A    between atoms: _133  and  _135
REMARK   52  A    between atoms: _135  and  _136
REMARK   53  A    between atoms: _135  and  _138
REMARK   54  A    between atoms: _141  and  _143
REMARK   55  A    between atoms: _143  and  _144
REMARK   56  A    between atoms: _143  and  _146
REMARK   57  A    between atoms: _146  and  _147
REMARK   58  A    between atoms: _147  and  _148
REMARK   59  A    between atoms: _148  and  _149
REMARK   60  A    between atoms: _149  and  _150
REMARK   61  A    between atoms: _154  and  _156
REMARK   62  A    between atoms: _156  and  _157
REMARK   63  A    between atoms: _156  and  _159
REMARK   64  A    between atoms: _159  and  _160
REMARK   65  A    between atoms: _160  and  _161
REMARK   66  A    between atoms: _161  and  _162
REMARK   67  A    between atoms: _162  and  _163
REMARK   68  A    between atoms: _167  and  _169
REMARK   69  A    between atoms: _169  and  _170
REMARK   70  A    between atoms: _169  and  _172
REMARK   71  A    between atoms: _172  and  _173
REMARK   72  A    between atoms: _176  and  _178
REMARK   73  A    between atoms: _178  and  _179
REMARK   74  A    between atoms: _178  and  _181
REMARK   75  A    between atoms: _181  and  _182
REMARK   76  A    between atoms: _182  and  _183
REMARK   77  A    between atoms: _186  and  _188
REMARK   78  A    between atoms: _188  and  _189
REMARK   79  A    between atoms: _188  and  _191
REMARK   80  A    between atoms: _191  and  _192
REMARK   81  A    between atoms: _195  and  _197
REMARK   82  A    between atoms: _197  and  _198
REMARK   83  A    between atoms: _197  and  _200
REMARK   84  A    between atoms: _200  and  _201
REMARK   85  A    between atoms: _204  and  _206
REMARK   86  A    between atoms: _206  and  _207
REMARK   87  A    between atoms: _209  and  _211
REMARK   88  A    between atoms: _211  and  _212
REMARK   89  A    between atoms: _211  and  _214
REMARK   90  A    between atoms: _214  and  _215
REMARK   91  A    between atoms: _218  and  _220
REMARK   92  A    between atoms: _220  and  _221
REMARK   93  A    between atoms: _220  and  _223
REMARK   94  A    between atoms: _223  and  _224
REMARK   95  A    between atoms: _227  and  _229
REMARK   96  A    between atoms: _229  and  _230
REMARK   97  A    between atoms: _229  and  _232
REMARK   98  A    between atoms: _232  and  _233
REMARK   99  A    between atoms: _236  and  _238
REMARK  100  A    between atoms: _238  and  _239
REMARK  101  A    between atoms: _238  and  _241
REMARK  102  A    between atoms: _244  and  _246
REMARK  103  A    between atoms: _246  and  _247
REMARK  104  A    between atoms: _246  and  _249
REMARK  105  A    between atoms: _249  and  _250
REMARK  106  A    between atoms: _255  and  _256
REMARK  107  A    between atoms: _258  and  _260
REMARK  108  A    between atoms: _260  and  _261
REMARK  109  A    between atoms: _260  and  _263
REMARK  110  A    between atoms: _263  and  _264
REMARK  111  A    between atoms: _267  and  _269
REMARK  112  A    between atoms: _269  and  _270
REMARK  113  A    between atoms: _269  and  _272
REMARK  114  A    between atoms: _275  and  _277
REMARK  115  A    between atoms: _277  and  _278
REMARK  116  A    between atoms: _277  and  _280
REMARK  117  A    between atoms: _280  and  _281
REMARK  118  A    between atoms: _284  and  _286
REMARK  119  A    between atoms: _286  and  _287
REMARK  120  A    between atoms: _286  and  _289
REMARK  121  A    between atoms: _289  and  _290
REMARK  122  A    between atoms: _295  and  _297
REMARK  123  A    between atoms: _297  and  _298
REMARK  124  A    between atoms: _297  and  _300
REMARK  125  A    between atoms: _300  and  _301
REMARK  126  A    between atoms: _304  and  _306
REMARK  127  A    between atoms: _306  and  _307
REMARK  128  A    between atoms: _306  and  _309
REMARK  129  A    between atoms: _309  and  _310
REMARK  130  A    between atoms: _310  and  _311
REMARK  131  A    between atoms: _313  and  _315
REMARK  132  A    between atoms: _315  and  _316
REMARK  133  A    between atoms: _318  and  _320
REMARK  134  A    between atoms: _320  and  _321
REMARK  135  A    between atoms: _324  and  _326
REMARK  136  A    between atoms: _326  and  _327
REMARK  137  A    between atoms: _326  and  _329
REMARK  138  A    between atoms: _329  and  _330
REMARK  139  A    between atoms: _333  and  _335
REMARK  140  A    between atoms: _335  and  _336
REMARK  141  A    between atoms: _335  and  _338
REMARK  142  A    between atoms: _338  and  _339
REMARK  143  A    between atoms: _342  and  _344
REMARK  144  A    between atoms: _344  and  _345
REMARK  145  A    between atoms: _344  and  _347
REMARK  146  A    between atoms: _347  and  _348
REMARK  147  A    between atoms: _353  and  _355
REMARK  148  A    between atoms: _355  and  _356
REMARK  149  A    between atoms: _355  and  _358
REMARK  150  A    between atoms: _358  and  _359
REMARK  151  A    between atoms: _365  and  _366
REMARK  152  A    between atoms: _371  and  _373
REMARK  153  A    between atoms: _373  and  _374
REMARK  154  A    between atoms: _373  and  _376
REMARK  155  A    between atoms: _376  and  _377
REMARK  156  A    between atoms: _379  and  _381
REMARK  157  A    between atoms: _381  and  _382
REMARK  158  A    between atoms: _381  and  _384
REMARK  159  A    between atoms: _384  and  _385
REMARK  160  A    between atoms: _390  and  _392
REMARK  161  A    between atoms: _392  and  _393
REMARK  162  A    between atoms: _392  and  _395
REMARK  163  A    between atoms: _395  and  _396
REMARK  164  A    between atoms: _399  and  _401
REMARK  165  A    between atoms: _401  and  _402
REMARK  166  A    between atoms: _405  and  _407
REMARK  167  A    between atoms: _407  and  _408
REMARK  168  A    between atoms: _407  and  _410
REMARK  169  A    between atoms: _413  and  _415
REMARK  170  A    between atoms: _415  and  _416
REMARK  171  A    between atoms: _415  and  _418
REMARK  172  A    between atoms: _418  and  _419
REMARK  173  A    between atoms: _424  and  _426
REMARK  174  A    between atoms: _426  and  _427
REMARK  175  A    between atoms: _426  and  _429
REMARK  176  A    between atoms: _429  and  _430
REMARK  177  A    between atoms: _430  and  _431
REMARK  178  A    between atoms: _431  and  _432
REMARK  179  A    between atoms: _432  and  _433
REMARK  180  A    between atoms: _437  and  _439
REMARK  181  A    between atoms: _439  and  _440
REMARK  182  A    between atoms: _439  and  _442
REMARK  183  A    between atoms: _442  and  _443
REMARK  184  A    between atoms: _446  and  _448
REMARK  185  A    between atoms: _448  and  _449
REMARK  186  A    between atoms: _448  and  _451
REMARK  187  A    between atoms: _451  and  _452
REMARK  188  A    between atoms: _455  and  _457
REMARK  189  A    between atoms: _457  and  _458
REMARK  190  A    between atoms: _457  and  _460
REMARK  191  A    between atoms: _460  and  _461
REMARK  192  A    between atoms: _464  and  _466
REMARK  193  A    between atoms: _466  and  _467
REMARK  194  A    between atoms: _466  and  _469
REMARK  195  A    between atoms: _469  and  _470
REMARK                            x       y       z     vdW  Elec       q    Type
REMARK                         _______ _______ _______ _____ _____    ______ ____
ROOT
ATOM      1  O   HOH     1      22.433  -2.371 -32.356  0.00  0.00    +0.000 OA
ENDROOT
TORSDOF 0
REMARK  Name = ../refined-set-2016/3hub/3hub_pocket.pdb
REMARK  195 active torsions:
REMARK  status: ('A' for Active; 'I' for Inactive)
REMARK    1  A    between atoms: _1  and  _3
REMARK    2  A    between atoms: _3  and  _4
REMARK    3  A    between atoms: _3  and  _6
REMARK    4  A    between atoms: _6  and  _7
REMARK    5  A    between atoms: _10  and  _11
REMARK    6  A    between atoms: _16  and  _18
REMARK    7  A    between atoms: _18  and  _19
REMARK    8  A    between atoms: _18  and  _21
REMARK    9  A    between atoms: _24  and  _26
REMARK   10  A    between atoms: _26  and  _27
REMARK   11  A    between atoms: _29  and  _31
REMARK   12  A    between atoms: _31  and  _32
REMARK   13  A    between atoms: _31  and  _34
REMARK   14  A    between atoms: _34  and  _35
REMARK   15  A    between atoms: _37  and  _39
REMARK   16  A    between atoms: _39  and  _40
REMARK   17  A    between atoms: _42  and  _44
REMARK   18  A    between atoms: _44  and  _45
REMARK   19  A    between atoms: _48  and  _50
REMARK   20  A    between atoms: _50  and  _51
REMARK   21  A    between atoms: _50  and  _53
REMARK   22  A    between atoms: _53  and  _54
REMARK   23  A    between atoms: _59  and  _60
REMARK   24  A    between atoms: _62  and  _64
REMARK   25  A    between atoms: _64  and  _65
REMARK   26  A    between atoms: _67  and  _69
REMARK   27  A    between atoms: _69  and  _70
REMARK   28  A    between atoms: _69  and  _72
REMARK   29  A    between atoms: _72  and  _73
REMARK   30  A    between atoms: _75  and  _77
REMARK   31  A    between atoms: _77  and  _78
REMARK   32  A    between atoms: _77  and  _80
REMARK   33  A    between atoms: _83  and  _85
REMARK   34  A    between atoms: _85  and  _86
REMARK   35  A    between atoms: _85  and  _88
REMARK   36  A    between atoms: _90  and  _92
REMARK   37  A    between atoms: _92  and  _93
REMARK   38  A    between atoms: _96  and  _98
REMARK   39  A    between atoms: _98  and  _99
REMARK   40  A    between atoms: _102  and  _104
REMARK   41  A    between atoms: _104  and  _105
REMARK   42  A    between atoms: _104  and  _107
REMARK   43  A    between atoms: _107  and  _108
REMARK   44  A    between atoms: _108  and  _109
REMARK   45  A    between atoms: _109  and  _110
REMARK   46  A    between atoms: _119  and  _121
REMARK   47  A    between atoms: _121  and  _122
REMARK   48  A    between atoms: _121  and  _124
REMARK   49  A    between atoms: _127  and  _129
REMARK   50  A    between atoms: _129  and  _130
REMARK   51  A    between atoms: _133  and  _135
REMARK   52  A    between atoms: _135  and  _136
REMARK   53  A    between atoms: _135  and  _138
REMARK   54  A    between atoms: _141  and  _143
REMARK   55  A    between atoms: _143  and  _144
REMARK   56  A    between atoms: _143  and  _146
REMARK   57  A    between atoms: _146  and  _147
REMARK   58  A    between atoms: _147  and  _148
REMARK   59  A    between atoms: _148  and  _149
REMARK   60  A    between atoms: _149  and  _150
REMARK   61  A    between atoms: _154  and  _156
REMARK   62  A    between atoms: _156  and  _157
REMARK   63  A    between atoms: _156  and  _159
REMARK   64  A    between atoms: _159  and  _160
REMARK   65  A    between atoms: _160  and  _161
REMARK   66  A    between atoms: _161  and  _162
REMARK   67  A    between atoms: _162  and  _163
REMARK   68  A    between atoms: _167  and  _169
REMARK   69  A    between atoms: _169  and  _170
REMARK   70  A    between atoms: _169  and  _172
REMARK   71  A    between atoms: _172  and  _173
REMARK   72  A    between atoms: _176  and  _178
REMARK   73  A    between atoms: _178  and  _179
REMARK   74  A    between atoms: _178  and  _181
REMARK   75  A    between atoms: _181  and  _182
REMARK   76  A    between atoms: _182  and  _183
REMARK   77  A    between atoms: _186  and  _188
REMARK   78  A    between atoms: _188  and  _189
REMARK   79  A    between atoms: _188  and  _191
REMARK   80  A    between atoms: _191  and  _192
REMARK   81  A    between atoms: _195  and  _197
REMARK   82  A    between atoms: _197  and  _198
REMARK   83  A    between atoms: _197  and  _200
REMARK   84  A    between atoms: _200  and  _201
REMARK   85  A    between atoms: _204  and  _206
REMARK   86  A    between atoms: _206  and  _207
REMARK   87  A    between atoms: _209  and  _211
REMARK   88  A    between atoms: _211  and  _212
REMARK   89  A    between atoms: _211  and  _214
REMARK   90  A    between atoms: _214  and  _215
REMARK   91  A    between atoms: _218  and  _220
REMARK   92  A    between atoms: _220  and  _221
REMARK   93  A    between atoms: _220  and  _223
REMARK   94  A    between atoms: _223  and  _224
REMARK   95  A    between atoms: _227  and  _229
REMARK   96  A    between atoms: _229  and  _230
REMARK   97  A    between atoms: _229  and  _232
REMARK   98  A    between atoms: _232  and  _233
REMARK   99  A    between atoms: _236  and  _238
REMARK  100  A    between atoms: _238  and  _239
REMARK  101  A    between atoms: _238  and  _241
REMARK  102  A    between atoms: _244  and  _246
REMARK  103  A    between atoms: _246  and  _247
REMARK  104  A    between atoms: _246  and  _249
REMARK  105  A    between atoms: _249  and  _250
REMARK  106  A    between atoms: _255  and  _256
REMARK  107  A    between atoms: _258  and  _260
REMARK  108  A    between atoms: _260  and  _261
REMARK  109  A    between atoms: _260  and  _263
REMARK  110  A    between atoms: _263  and  _264
REMARK  111  A    between atoms: _267  and  _269
REMARK  112  A    between atoms: _269  and  _270
REMARK  113  A    between atoms: _269  and  _272
REMARK  114  A    between atoms: _275  and  _277
REMARK  115  A    between atoms: _277  and  _278
REMARK  116  A    between atoms: _277  and  _280
REMARK  117  A    between atoms: _280  and  _281
REMARK  118  A    between atoms: _284  and  _286
REMARK  119  A    between atoms: _286  and  _287
REMARK  120  A    between atoms: _286  and  _289
REMARK  121  A    between atoms: _289  and  _290
REMARK  122  A    between atoms: _295  and  _297
REMARK  123  A    between atoms: _297  and  _298
REMARK  124  A    between atoms: _297  and  _300
REMARK  125  A    between atoms: _300  and  _301
REMARK  126  A    between atoms: _304  and  _306
REMARK  127  A    between atoms: _306  and  _307
REMARK  128  A    between atoms: _306  and  _309
REMARK  129  A    between atoms: _309  and  _310
REMARK  130  A    between atoms: _310  and  _311
REMARK  131  A    between atoms: _313  and  _315
REMARK  132  A    between atoms: _315  and  _316
REMARK  133  A    between atoms: _318  and  _320
REMARK  134  A    between atoms: _320  and  _321
REMARK  135  A    between atoms: _324  and  _326
REMARK  136  A    between atoms: _326  and  _327
REMARK  137  A    between atoms: _326  and  _329
REMARK  138  A    between atoms: _329  and  _330
REMARK  139  A    between atoms: _333  and  _335
REMARK  140  A    between atoms: _335  and  _336
REMARK  141  A    between atoms: _335  and  _338
REMARK  142  A    between atoms: _338  and  _339
REMARK  143  A    between atoms: _342  and  _344
REMARK  144  A    between atoms: _344  and  _345
REMARK  145  A    between atoms: _344  and  _347
REMARK  146  A    between atoms: _347  and  _348
REMARK  147  A    between atoms: _353  and  _355
REMARK  148  A    between atoms: _355  and  _356
REMARK  149  A    between atoms: _355  and  _358
REMARK  150  A    between atoms: _358  and  _359
REMARK  151  A    between atoms: _365  and  _366
REMARK  152  A    between atoms: _371  and  _373
REMARK  153  A    between atoms: _373  and  _374
REMARK  154  A    between atoms: _373  and  _376
REMARK  155  A    between atoms: _376  and  _377
REMARK  156  A    between atoms: _379  and  _381
REMARK  157  A    between atoms: _381  and  _382
REMARK  158  A    between atoms: _381  and  _384
REMARK  159  A    between atoms: _384  and  _385
REMARK  160  A    between atoms: _390  and  _392
REMARK  161  A    between atoms: _392  and  _393
REMARK  162  A    between atoms: _392  and  _395
REMARK  163  A    between atoms: _395  and  _396
REMARK  164  A    between atoms: _399  and  _401
REMARK  165  A    between atoms: _401  and  _402
REMARK  166  A    between atoms: _405  and  _407
REMARK  167  A    between atoms: _407  and  _408
REMARK  168  A    between atoms: _407  and  _410
REMARK  169  A    between atoms: _413  and  _415
REMARK  170  A    between atoms: _415  and  _416
REMARK  171  A    between atoms: _415  and  _418
REMARK  172  A    between atoms: _418  and  _419
REMARK  173  A    between atoms: _424  and  _426
REMARK  174  A    between atoms: _426  and  _427
REMARK  175  A    between atoms: _426  and  _429
REMARK  176  A    between atoms: _429  and  _430
REMARK  177  A    between atoms: _430  and  _431
REMARK  178  A    between atoms: _431  and  _432
REMARK  179  A    between atoms: _432  and  _433
REMARK  180  A    between atoms: _437  and  _439
REMARK  181  A    between atoms: _439  and  _440
REMARK  182  A    between atoms: _439  and  _442
REMARK  183  A    between atoms: _442  and  _443
REMARK  184  A    between atoms: _446  and  _448
REMARK  185  A    between atoms: _448  and  _449
REMARK  186  A    between atoms: _448  and  _451
REMARK  187  A    between atoms: _451  and  _452
REMARK  188  A    between atoms: _455  and  _457
REMARK  189  A    between atoms: _457  and  _458
REMARK  190  A    between atoms: _457  and  _460
REMARK  191  A    between atoms: _460  and  _461
REMARK  192  A    between atoms: _464  and  _466
REMARK  193  A    between atoms: _466  and  _467
REMARK  194  A    between atoms: _466  and  _469
REMARK  195  A    between atoms: _469  and  _470
REMARK                            x       y       z     vdW  Elec       q    Type
REMARK                         _______ _______ _______ _____ _____    ______ ____
ROOT
ATOM      1  O   HOH     1      19.496  -8.134 -26.858  0.00  0.00    +0.000 OA
ENDROOT
TORSDOF 0
REMARK  Name = ../refined-set-2016/3hub/3hub_pocket.pdb
REMARK  195 active torsions:
REMARK  status: ('A' for Active; 'I' for Inactive)
REMARK    1  A    between atoms: _1  and  _3
REMARK    2  A    between atoms: _3  and  _4
REMARK    3  A    between atoms: _3  and  _6
REMARK    4  A    between atoms: _6  and  _7
REMARK    5  A    between atoms: _10  and  _11
REMARK    6  A    between atoms: _16  and  _18
REMARK    7  A    between atoms: _18  and  _19
REMARK    8  A    between atoms: _18  and  _21
REMARK    9  A    between atoms: _24  and  _26
REMARK   10  A    between atoms: _26  and  _27
REMARK   11  A    between atoms: _29  and  _31
REMARK   12  A    between atoms: _31  and  _32
REMARK   13  A    between atoms: _31  and  _34
REMARK   14  A    between atoms: _34  and  _35
REMARK   15  A    between atoms: _37  and  _39
REMARK   16  A    between atoms: _39  and  _40
REMARK   17  A    between atoms: _42  and  _44
REMARK   18  A    between atoms: _44  and  _45
REMARK   19  A    between atoms: _48  and  _50
REMARK   20  A    between atoms: _50  and  _51
REMARK   21  A    between atoms: _50  and  _53
REMARK   22  A    between atoms: _53  and  _54
REMARK   23  A    between atoms: _59  and  _60
REMARK   24  A    between atoms: _62  and  _64
REMARK   25  A    between atoms: _64  and  _65
REMARK   26  A    between atoms: _67  and  _69
REMARK   27  A    between atoms: _69  and  _70
REMARK   28  A    between atoms: _69  and  _72
REMARK   29  A    between atoms: _72  and  _73
REMARK   30  A    between atoms: _75  and  _77
REMARK   31  A    between atoms: _77  and  _78
REMARK   32  A    between atoms: _77  and  _80
REMARK   33  A    between atoms: _83  and  _85
REMARK   34  A    between atoms: _85  and  _86
REMARK   35  A    between atoms: _85  and  _88
REMARK   36  A    between atoms: _90  and  _92
REMARK   37  A    between atoms: _92  and  _93
REMARK   38  A    between atoms: _96  and  _98
REMARK   39  A    between atoms: _98  and  _99
REMARK   40  A    between atoms: _102  and  _104
REMARK   41  A    between atoms: _104  and  _105
REMARK   42  A    between atoms: _104  and  _107
REMARK   43  A    between atoms: _107  and  _108
REMARK   44  A    between atoms: _108  and  _109
REMARK   45  A    between atoms: _109  and  _110
REMARK   46  A    between atoms: _119  and  _121
REMARK   47  A    between atoms: _121  and  _122
REMARK   48  A    between atoms: _121  and  _124
REMARK   49  A    between atoms: _127  and  _129
REMARK   50  A    between atoms: _129  and  _130
REMARK   51  A    between atoms: _133  and  _135
REMARK   52  A    between atoms: _135  and  _136
REMARK   53  A    between atoms: _135  and  _138
REMARK   54  A    between atoms: _141  and  _143
REMARK   55  A    between atoms: _143  and  _144
REMARK   56  A    between atoms: _143  and  _146
REMARK   57  A    between atoms: _146  and  _147
REMARK   58  A    between atoms: _147  and  _148
REMARK   59  A    between atoms: _148  and  _149
REMARK   60  A    between atoms: _149  and  _150
REMARK   61  A    between atoms: _154  and  _156
REMARK   62  A    between atoms: _156  and  _157
REMARK   63  A    between atoms: _156  and  _159
REMARK   64  A    between atoms: _159  and  _160
REMARK   65  A    between atoms: _160  and  _161
REMARK   66  A    between atoms: _161  and  _162
REMARK   67  A    between atoms: _162  and  _163
REMARK   68  A    between atoms: _167  and  _169
REMARK   69  A    between atoms: _169  and  _170
REMARK   70  A    between atoms: _169  and  _172
REMARK   71  A    between atoms: _172  and  _173
REMARK   72  A    between atoms: _176  and  _178
REMARK   73  A    between atoms: _178  and  _179
REMARK   74  A    between atoms: _178  and  _181
REMARK   75  A    between atoms: _181  and  _182
REMARK   76  A    between atoms: _182  and  _183
REMARK   77  A    between atoms: _186  and  _188
REMARK   78  A    between atoms: _188  and  _189
REMARK   79  A    between atoms: _188  and  _191
REMARK   80  A    between atoms: _191  and  _192
REMARK   81  A    between atoms: _195  and  _197
REMARK   82  A    between atoms: _197  and  _198
REMARK   83  A    between atoms: _197  and  _200
REMARK   84  A    between atoms: _200  and  _201
REMARK   85  A    between atoms: _204  and  _206
REMARK   86  A    between atoms: _206  and  _207
REMARK   87  A    between atoms: _209  and  _211
REMARK   88  A    between atoms: _211  and  _212
REMARK   89  A    between atoms: _211  and  _214
REMARK   90  A    between atoms: _214  and  _215
REMARK   91  A    between atoms: _218  and  _220
REMARK   92  A    between atoms: _220  and  _221
REMARK   93  A    between atoms: _220  and  _223
REMARK   94  A    between atoms: _223  and  _224
REMARK   95  A    between atoms: _227  and  _229
REMARK   96  A    between atoms: _229  and  _230
REMARK   97  A    between atoms: _229  and  _232
REMARK   98  A    between atoms: _232  and  _233
REMARK   99  A    between atoms: _236  and  _238
REMARK  100  A    between atoms: _238  and  _239
REMARK  101  A    between atoms: _238  and  _241
REMARK  102  A    between atoms: _244  and  _246
REMARK  103  A    between atoms: _246  and  _247
REMARK  104  A    between atoms: _246  and  _249
REMARK  105  A    between atoms: _249  and  _250
REMARK  106  A    between atoms: _255  and  _256
REMARK  107  A    between atoms: _258  and  _260
REMARK  108  A    between atoms: _260  and  _261
REMARK  109  A    between atoms: _260  and  _263
REMARK  110  A    between atoms: _263  and  _264
REMARK  111  A    between atoms: _267  and  _269
REMARK  112  A    between atoms: _269  and  _270
REMARK  113  A    between atoms: _269  and  _272
REMARK  114  A    between atoms: _275  and  _277
REMARK  115  A    between atoms: _277  and  _278
REMARK  116  A    between atoms: _277  and  _280
REMARK  117  A    between atoms: _280  and  _281
REMARK  118  A    between atoms: _284  and  _286
REMARK  119  A    between atoms: _286  and  _287
REMARK  120  A    between atoms: _286  and  _289
REMARK  121  A    between atoms: _289  and  _290
REMARK  122  A    between atoms: _295  and  _297
REMARK  123  A    between atoms: _297  and  _298
REMARK  124  A    between atoms: _297  and  _300
REMARK  125  A    between atoms: _300  and  _301
REMARK  126  A    between atoms: _304  and  _306
REMARK  127  A    between atoms: _306  and  _307
REMARK  128  A    between atoms: _306  and  _309
REMARK  129  A    between atoms: _309  and  _310
REMARK  130  A    between atoms: _310  and  _311
REMARK  131  A    between atoms: _313  and  _315
REMARK  132  A    between atoms: _315  and  _316
REMARK  133  A    between atoms: _318  and  _320
REMARK  134  A    between atoms: _320  and  _321
REMARK  135  A    between atoms: _324  and  _326
REMARK  136  A    between atoms: _326  and  _327
REMARK  137  A    between atoms: _326  and  _329
REMARK  138  A    between atoms: _329  and  _330
REMARK  139  A    between atoms: _333  and  _335
REMARK  140  A    between atoms: _335  and  _336
REMARK  141  A    between atoms: _335  and  _338
REMARK  142  A    between atoms: _338  and  _339
REMARK  143  A    between atoms: _342  and  _344
REMARK  144  A    between atoms: _344  and  _345
REMARK  145  A    between atoms: _344  and  _347
REMARK  146  A    between atoms: _347  and  _348
REMARK  147  A    between atoms: _353  and  _355
REMARK  148  A    between atoms: _355  and  _356
REMARK  149  A    between atoms: _355  and  _358
REMARK  150  A    between atoms: _358  and  _359
REMARK  151  A    between atoms: _365  and  _366
REMARK  152  A    between atoms: _371  and  _373
REMARK  153  A    between atoms: _373  and  _374
REMARK  154  A    between atoms: _373  and  _376
REMARK  155  A    between atoms: _376  and  _377
REMARK  156  A    between atoms: _379  and  _381
REMARK  157  A    between atoms: _381  and  _382
REMARK  158  A    between atoms: _381  and  _384
REMARK  159  A    between atoms: _384  and  _385
REMARK  160  A    between atoms: _390  and  _392
REMARK  161  A    between atoms: _392  and  _393
REMARK  162  A    between atoms: _392  and  _395
REMARK  163  A    between atoms: _395  and  _396
REMARK  164  A    between atoms: _399  and  _401
REMARK  165  A    between atoms: _401  and  _402
REMARK  166  A    between atoms: _405  and  _407
REMARK  167  A    between atoms: _407  and  _408
REMARK  168  A    between atoms: _407  and  _410
REMARK  169  A    between atoms: _413  and  _415
REMARK  170  A    between atoms: _415  and  _416
REMARK  171  A    between atoms: _415  and  _418
REMARK  172  A    between atoms: _418  and  _419
REMARK  173  A    between atoms: _424  and  _426
REMARK  174  A    between atoms: _426  and  _427
REMARK  175  A    between atoms: _426  and  _429
REMARK  176  A    between atoms: _429  and  _430
REMARK  177  A    between atoms: _430  and  _431
REMARK  178  A    between atoms: _431  and  _432
REMARK  179  A    between atoms: _432  and  _433
REMARK  180  A    between atoms: _437  and  _439
REMARK  181  A    between atoms: _439  and  _440
REMARK  182  A    between atoms: _439  and  _442
REMARK  183  A    between atoms: _442  and  _443
REMARK  184  A    between atoms: _446  and  _448
REMARK  185  A    between atoms: _448  and  _449
REMARK  186  A    between atoms: _448  and  _451
REMARK  187  A    between atoms: _451  and  _452
REMARK  188  A    between atoms: _455  and  _457
REMARK  189  A    between atoms: _457  and  _458
REMARK  190  A    between atoms: _457  and  _460
REMARK  191  A    between atoms: _460  and  _461
REMARK  192  A    between atoms: _464  and  _466
REMARK  193  A    between atoms: _466  and  _467
REMARK  194  A    between atoms: _466  and  _469
REMARK  195  A    between atoms: _469  and  _470
REMARK                            x       y       z     vdW  Elec       q    Type
REMARK                         _______ _______ _______ _____ _____    ______ ____
ROOT
ATOM      1  O   HOH     1      24.454   5.532 -17.626  0.00  0.00    +0.000 OA
ENDROOT
TORSDOF 0
REMARK  Name = ../refined-set-2016/3hub/3hub_pocket.pdb
REMARK  195 active torsions:
REMARK  status: ('A' for Active; 'I' for Inactive)
REMARK    1  A    between atoms: _1  and  _3
REMARK    2  A    between atoms: _3  and  _4
REMARK    3  A    between atoms: _3  and  _6
REMARK    4  A    between atoms: _6  and  _7
REMARK    5  A    between atoms: _10  and  _11
REMARK    6  A    between atoms: _16  and  _18
REMARK    7  A    between atoms: _18  and  _19
REMARK    8  A    between atoms: _18  and  _21
REMARK    9  A    between atoms: _24  and  _26
REMARK   10  A    between atoms: _26  and  _27
REMARK   11  A    between atoms: _29  and  _31
REMARK   12  A    between atoms: _31  and  _32
REMARK   13  A    between atoms: _31  and  _34
REMARK   14  A    between atoms: _34  and  _35
REMARK   15  A    between atoms: _37  and  _39
REMARK   16  A    between atoms: _39  and  _40
REMARK   17  A    between atoms: _42  and  _44
REMARK   18  A    between atoms: _44  and  _45
REMARK   19  A    between atoms: _48  and  _50
REMARK   20  A    between atoms: _50  and  _51
REMARK   21  A    between atoms: _50  and  _53
REMARK   22  A    between atoms: _53  and  _54
REMARK   23  A    between atoms: _59  and  _60
REMARK   24  A    between atoms: _62  and  _64
REMARK   25  A    between atoms: _64  and  _65
REMARK   26  A    between atoms: _67  and  _69
REMARK   27  A    between atoms: _69  and  _70
REMARK   28  A    between atoms: _69  and  _72
REMARK   29  A    between atoms: _72  and  _73
REMARK   30  A    between atoms: _75  and  _77
REMARK   31  A    between atoms: _77  and  _78
REMARK   32  A    between atoms: _77  and  _80
REMARK   33  A    between atoms: _83  and  _85
REMARK   34  A    between atoms: _85  and  _86
REMARK   35  A    between atoms: _85  and  _88
REMARK   36  A    between atoms: _90  and  _92
REMARK   37  A    between atoms: _92  and  _93
REMARK   38  A    between atoms: _96  and  _98
REMARK   39  A    between atoms: _98  and  _99
REMARK   40  A    between atoms: _102  and  _104
REMARK   41  A    between atoms: _104  and  _105
REMARK   42  A    between atoms: _104  and  _107
REMARK   43  A    between atoms: _107  and  _108
REMARK   44  A    between atoms: _108  and  _109
REMARK   45  A    between atoms: _109  and  _110
REMARK   46  A    between atoms: _119  and  _121
REMARK   47  A    between atoms: _121  and  _122
REMARK   48  A    between atoms: _121  and  _124
REMARK   49  A    between atoms: _127  and  _129
REMARK   50  A    between atoms: _129  and  _130
REMARK   51  A    between atoms: _133  and  _135
REMARK   52  A    between atoms: _135  and  _136
REMARK   53  A    between atoms: _135  and  _138
REMARK   54  A    between atoms: _141  and  _143
REMARK   55  A    between atoms: _143  and  _144
REMARK   56  A    between atoms: _143  and  _146
REMARK   57  A    between atoms: _146  and  _147
REMARK   58  A    between atoms: _147  and  _148
REMARK   59  A    between atoms: _148  and  _149
REMARK   60  A    between atoms: _149  and  _150
REMARK   61  A    between atoms: _154  and  _156
REMARK   62  A    between atoms: _156  and  _157
REMARK   63  A    between atoms: _156  and  _159
REMARK   64  A    between atoms: _159  and  _160
REMARK   65  A    between atoms: _160  and  _161
REMARK   66  A    between atoms: _161  and  _162
REMARK   67  A    between atoms: _162  and  _163
REMARK   68  A    between atoms: _167  and  _169
REMARK   69  A    between atoms: _169  and  _170
REMARK   70  A    between atoms: _169  and  _172
REMARK   71  A    between atoms: _172  and  _173
REMARK   72  A    between atoms: _176  and  _178
REMARK   73  A    between atoms: _178  and  _179
REMARK   74  A    between atoms: _178  and  _181
REMARK   75  A    between atoms: _181  and  _182
REMARK   76  A    between atoms: _182  and  _183
REMARK   77  A    between atoms: _186  and  _188
REMARK   78  A    between atoms: _188  and  _189
REMARK   79  A    between atoms: _188  and  _191
REMARK   80  A    between atoms: _191  and  _192
REMARK   81  A    between atoms: _195  and  _197
REMARK   82  A    between atoms: _197  and  _198
REMARK   83  A    between atoms: _197  and  _200
REMARK   84  A    between atoms: _200  and  _201
REMARK   85  A    between atoms: _204  and  _206
REMARK   86  A    between atoms: _206  and  _207
REMARK   87  A    between atoms: _209  and  _211
REMARK   88  A    between atoms: _211  and  _212
REMARK   89  A    between atoms: _211  and  _214
REMARK   90  A    between atoms: _214  and  _215
REMARK   91  A    between atoms: _218  and  _220
REMARK   92  A    between atoms: _220  and  _221
REMARK   93  A    between atoms: _220  and  _223
REMARK   94  A    between atoms: _223  and  _224
REMARK   95  A    between atoms: _227  and  _229
REMARK   96  A    between atoms: _229  and  _230
REMARK   97  A    between atoms: _229  and  _232
REMARK   98  A    between atoms: _232  and  _233
REMARK   99  A    between atoms: _236  and  _238
REMARK  100  A    between atoms: _238  and  _239
REMARK  101  A    between atoms: _238  and  _241
REMARK  102  A    between atoms: _244  and  _246
REMARK  103  A    between atoms: _246  and  _247
REMARK  104  A    between atoms: _246  and  _249
REMARK  105  A    between atoms: _249  and  _250
REMARK  106  A    between atoms: _255  and  _256
REMARK  107  A    between atoms: _258  and  _260
REMARK  108  A    between atoms: _260  and  _261
REMARK  109  A    between atoms: _260  and  _263
REMARK  110  A    between atoms: _263  and  _264
REMARK  111  A    between atoms: _267  and  _269
REMARK  112  A    between atoms: _269  and  _270
REMARK  113  A    between atoms: _269  and  _272
REMARK  114  A    between atoms: _275  and  _277
REMARK  115  A    between atoms: _277  and  _278
REMARK  116  A    between atoms: _277  and  _280
REMARK  117  A    between atoms: _280  and  _281
REMARK  118  A    between atoms: _284  and  _286
REMARK  119  A    between atoms: _286  and  _287
REMARK  120  A    between atoms: _286  and  _289
REMARK  121  A    between atoms: _289  and  _290
REMARK  122  A    between atoms: _295  and  _297
REMARK  123  A    between atoms: _297  and  _298
REMARK  124  A    between atoms: _297  and  _300
REMARK  125  A    between atoms: _300  and  _301
REMARK  126  A    between atoms: _304  and  _306
REMARK  127  A    between atoms: _306  and  _307
REMARK  128  A    between atoms: _306  and  _309
REMARK  129  A    between atoms: _309  and  _310
REMARK  130  A    between atoms: _310  and  _311
REMARK  131  A    between atoms: _313  and  _315
REMARK  132  A    between atoms: _315  and  _316
REMARK  133  A    between atoms: _318  and  _320
REMARK  134  A    between atoms: _320  and  _321
REMARK  135  A    between atoms: _324  and  _326
REMARK  136  A    between atoms: _326  and  _327
REMARK  137  A    between atoms: _326  and  _329
REMARK  138  A    between atoms: _329  and  _330
REMARK  139  A    between atoms: _333  and  _335
REMARK  140  A    between atoms: _335  and  _336
REMARK  141  A    between atoms: _335  and  _338
REMARK  142  A    between atoms: _338  and  _339
REMARK  143  A    between atoms: _342  and  _344
REMARK  144  A    between atoms: _344  and  _345
REMARK  145  A    between atoms: _344  and  _347
REMARK  146  A    between atoms: _347  and  _348
REMARK  147  A    between atoms: _353  and  _355
REMARK  148  A    between atoms: _355  and  _356
REMARK  149  A    between atoms: _355  and  _358
REMARK  150  A    between atoms: _358  and  _359
REMARK  151  A    between atoms: _365  and  _366
REMARK  152  A    between atoms: _371  and  _373
REMARK  153  A    between atoms: _373  and  _374
REMARK  154  A    between atoms: _373  and  _376
REMARK  155  A    between atoms: _376  and  _377
REMARK  156  A    between atoms: _379  and  _381
REMARK  157  A    between atoms: _381  and  _382
REMARK  158  A    between atoms: _381  and  _384
REMARK  159  A    between atoms: _384  and  _385
REMARK  160  A    between atoms: _390  and  _392
REMARK  161  A    between atoms: _392  and  _393
REMARK  162  A    between atoms: _392  and  _395
REMARK  163  A    between atoms: _395  and  _396
REMARK  164  A    between atoms: _399  and  _401
REMARK  165  A    between atoms: _401  and  _402
REMARK  166  A    between atoms: _405  and  _407
REMARK  167  A    between atoms: _407  and  _408
REMARK  168  A    between atoms: _407  and  _410
REMARK  169  A    between atoms: _413  and  _415
REMARK  170  A    between atoms: _415  and  _416
REMARK  171  A    between atoms: _415  and  _418
REMARK  172  A    between atoms: _418  and  _419
REMARK  173  A    between atoms: _424  and  _426
REMARK  174  A    between atoms: _426  and  _427
REMARK  175  A    between atoms: _426  and  _429
REMARK  176  A    between atoms: _429  and  _430
REMARK  177  A    between atoms: _430  and  _431
REMARK  178  A    between atoms: _431  and  _432
REMARK  179  A    between atoms: _432  and  _433
REMARK  180  A    between atoms: _437  and  _439
REMARK  181  A    between atoms: _439  and  _440
REMARK  182  A    between atoms: _439  and  _442
REMARK  183  A    between atoms: _442  and  _443
REMARK  184  A    between atoms: _446  and  _448
REMARK  185  A    between atoms: _448  and  _449
REMARK  186  A    between atoms: _448  and  _451
REMARK  187  A    between atoms: _451  and  _452
REMARK  188  A    between atoms: _455  and  _457
REMARK  189  A    between atoms: _457  and  _458
REMARK  190  A    between atoms: _457  and  _460
REMARK  191  A    between atoms: _460  and  _461
REMARK  192  A    between atoms: _464  and  _466
REMARK  193  A    between atoms: _466  and  _467
REMARK  194  A    between atoms: _466  and  _469
REMARK  195  A    between atoms: _469  and  _470
REMARK                            x       y       z     vdW  Elec       q    Type
REMARK                         _______ _______ _______ _____ _____    ______ ____
ROOT
ATOM      1  O   HOH     1      17.314  -6.801 -15.881  0.00  0.00    +0.000 OA
ENDROOT
TORSDOF 0
REMARK  Name = ../refined-set-2016/3hub/3hub_pocket.pdb
REMARK  195 active torsions:
REMARK  status: ('A' for Active; 'I' for Inactive)
REMARK    1  A    between atoms: _1  and  _3
REMARK    2  A    between atoms: _3  and  _4
REMARK    3  A    between atoms: _3  and  _6
REMARK    4  A    between atoms: _6  and  _7
REMARK    5  A    between atoms: _10  and  _11
REMARK    6  A    between atoms: _16  and  _18
REMARK    7  A    between atoms: _18  and  _19
REMARK    8  A    between atoms: _18  and  _21
REMARK    9  A    between atoms: _24  and  _26
REMARK   10  A    between atoms: _26  and  _27
REMARK   11  A    between atoms: _29  and  _31
REMARK   12  A    between atoms: _31  and  _32
REMARK   13  A    between atoms: _31  and  _34
REMARK   14  A    between atoms: _34  and  _35
REMARK   15  A    between atoms: _37  and  _39
REMARK   16  A    between atoms: _39  and  _40
REMARK   17  A    between atoms: _42  and  _44
REMARK   18  A    between atoms: _44  and  _45
REMARK   19  A    between atoms: _48  and  _50
REMARK   20  A    between atoms: _50  and  _51
REMARK   21  A    between atoms: _50  and  _53
REMARK   22  A    between atoms: _53  and  _54
REMARK   23  A    between atoms: _59  and  _60
REMARK   24  A    between atoms: _62  and  _64
REMARK   25  A    between atoms: _64  and  _65
REMARK   26  A    between atoms: _67  and  _69
REMARK   27  A    between atoms: _69  and  _70
REMARK   28  A    between atoms: _69  and  _72
REMARK   29  A    between atoms: _72  and  _73
REMARK   30  A    between atoms: _75  and  _77
REMARK   31  A    between atoms: _77  and  _78
REMARK   32  A    between atoms: _77  and  _80
REMARK   33  A    between atoms: _83  and  _85
REMARK   34  A    between atoms: _85  and  _86
REMARK   35  A    between atoms: _85  and  _88
REMARK   36  A    between atoms: _90  and  _92
REMARK   37  A    between atoms: _92  and  _93
REMARK   38  A    between atoms: _96  and  _98
REMARK   39  A    between atoms: _98  and  _99
REMARK   40  A    between atoms: _102  and  _104
REMARK   41  A    between atoms: _104  and  _105
REMARK   42  A    between atoms: _104  and  _107
REMARK   43  A    between atoms: _107  and  _108
REMARK   44  A    between atoms: _108  and  _109
REMARK   45  A    between atoms: _109  and  _110
REMARK   46  A    between atoms: _119  and  _121
REMARK   47  A    between atoms: _121  and  _122
REMARK   48  A    between atoms: _121  and  _124
REMARK   49  A    between atoms: _127  and  _129
REMARK   50  A    between atoms: _129  and  _130
REMARK   51  A    between atoms: _133  and  _135
REMARK   52  A    between atoms: _135  and  _136
REMARK   53  A    between atoms: _135  and  _138
REMARK   54  A    between atoms: _141  and  _143
REMARK   55  A    between atoms: _143  and  _144
REMARK   56  A    between atoms: _143  and  _146
REMARK   57  A    between atoms: _146  and  _147
REMARK   58  A    between atoms: _147  and  _148
REMARK   59  A    between atoms: _148  and  _149
REMARK   60  A    between atoms: _149  and  _150
REMARK   61  A    between atoms: _154  and  _156
REMARK   62  A    between atoms: _156  and  _157
REMARK   63  A    between atoms: _156  and  _159
REMARK   64  A    between atoms: _159  and  _160
REMARK   65  A    between atoms: _160  and  _161
REMARK   66  A    between atoms: _161  and  _162
REMARK   67  A    between atoms: _162  and  _163
REMARK   68  A    between atoms: _167  and  _169
REMARK   69  A    between atoms: _169  and  _170
REMARK   70  A    between atoms: _169  and  _172
REMARK   71  A    between atoms: _172  and  _173
REMARK   72  A    between atoms: _176  and  _178
REMARK   73  A    between atoms: _178  and  _179
REMARK   74  A    between atoms: _178  and  _181
REMARK   75  A    between atoms: _181  and  _182
REMARK   76  A    between atoms: _182  and  _183
REMARK   77  A    between atoms: _186  and  _188
REMARK   78  A    between atoms: _188  and  _189
REMARK   79  A    between atoms: _188  and  _191
REMARK   80  A    between atoms: _191  and  _192
REMARK   81  A    between atoms: _195  and  _197
REMARK   82  A    between atoms: _197  and  _198
REMARK   83  A    between atoms: _197  and  _200
REMARK   84  A    between atoms: _200  and  _201
REMARK   85  A    between atoms: _204  and  _206
REMARK   86  A    between atoms: _206  and  _207
REMARK   87  A    between atoms: _209  and  _211
REMARK   88  A    between atoms: _211  and  _212
REMARK   89  A    between atoms: _211  and  _214
REMARK   90  A    between atoms: _214  and  _215
REMARK   91  A    between atoms: _218  and  _220
REMARK   92  A    between atoms: _220  and  _221
REMARK   93  A    between atoms: _220  and  _223
REMARK   94  A    between atoms: _223  and  _224
REMARK   95  A    between atoms: _227  and  _229
REMARK   96  A    between atoms: _229  and  _230
REMARK   97  A    between atoms: _229  and  _232
REMARK   98  A    between atoms: _232  and  _233
REMARK   99  A    between atoms: _236  and  _238
REMARK  100  A    between atoms: _238  and  _239
REMARK  101  A    between atoms: _238  and  _241
REMARK  102  A    between atoms: _244  and  _246
REMARK  103  A    between atoms: _246  and  _247
REMARK  104  A    between atoms: _246  and  _249
REMARK  105  A    between atoms: _249  and  _250
REMARK  106  A    between atoms: _255  and  _256
REMARK  107  A    between atoms: _258  and  _260
REMARK  108  A    between atoms: _260  and  _261
REMARK  109  A    between atoms: _260  and  _263
REMARK  110  A    between atoms: _263  and  _264
REMARK  111  A    between atoms: _267  and  _269
REMARK  112  A    between atoms: _269  and  _270
REMARK  113  A    between atoms: _269  and  _272
REMARK  114  A    between atoms: _275  and  _277
REMARK  115  A    between atoms: _277  and  _278
REMARK  116  A    between atoms: _277  and  _280
REMARK  117  A    between atoms: _280  and  _281
REMARK  118  A    between atoms: _284  and  _286
REMARK  119  A    between atoms: _286  and  _287
REMARK  120  A    between atoms: _286  and  _289
REMARK  121  A    between atoms: _289  and  _290
REMARK  122  A    between atoms: _295  and  _297
REMARK  123  A    between atoms: _297  and  _298
REMARK  124  A    between atoms: _297  and  _300
REMARK  125  A    between atoms: _300  and  _301
REMARK  126  A    between atoms: _304  and  _306
REMARK  127  A    between atoms: _306  and  _307
REMARK  128  A    between atoms: _306  and  _309
REMARK  129  A    between atoms: _309  and  _310
REMARK  130  A    between atoms: _310  and  _311
REMARK  131  A    between atoms: _313  and  _315
REMARK  132  A    between atoms: _315  and  _316
REMARK  133  A    between atoms: _318  and  _320
REMARK  134  A    between atoms: _320  and  _321
REMARK  135  A    between atoms: _324  and  _326
REMARK  136  A    between atoms: _326  and  _327
REMARK  137  A    between atoms: _326  and  _329
REMARK  138  A    between atoms: _329  and  _330
REMARK  139  A    between atoms: _333  and  _335
REMARK  140  A    between atoms: _335  and  _336
REMARK  141  A    between atoms: _335  and  _338
REMARK  142  A    between atoms: _338  and  _339
REMARK  143  A    between atoms: _342  and  _344
REMARK  144  A    between atoms: _344  and  _345
REMARK  145  A    between atoms: _344  and  _347
REMARK  146  A    between atoms: _347  and  _348
REMARK  147  A    between atoms: _353  and  _355
REMARK  148  A    between atoms: _355  and  _356
REMARK  149  A    between atoms: _355  and  _358
REMARK  150  A    between atoms: _358  and  _359
REMARK  151  A    between atoms: _365  and  _366
REMARK  152  A    between atoms: _371  and  _373
REMARK  153  A    between atoms: _373  and  _374
REMARK  154  A    between atoms: _373  and  _376
REMARK  155  A    between atoms: _376  and  _377
REMARK  156  A    between atoms: _379  and  _381
REMARK  157  A    between atoms: _381  and  _382
REMARK  158  A    between atoms: _381  and  _384
REMARK  159  A    between atoms: _384  and  _385
REMARK  160  A    between atoms: _390  and  _392
REMARK  161  A    between atoms: _392  and  _393
REMARK  162  A    between atoms: _392  and  _395
REMARK  163  A    between atoms: _395  and  _396
REMARK  164  A    between atoms: _399  and  _401
REMARK  165  A    between atoms: _401  and  _402
REMARK  166  A    between atoms: _405  and  _407
REMARK  167  A    between atoms: _407  and  _408
REMARK  168  A    between atoms: _407  and  _410
REMARK  169  A    between atoms: _413  and  _415
REMARK  170  A    between atoms: _415  and  _416
REMARK  171  A    between atoms: _415  and  _418
REMARK  172  A    between atoms: _418  and  _419
REMARK  173  A    between atoms: _424  and  _426
REMARK  174  A    between atoms: _426  and  _427
REMARK  175  A    between atoms: _426  and  _429
REMARK  176  A    between atoms: _429  and  _430
REMARK  177  A    between atoms: _430  and  _431
REMARK  178  A    between atoms: _431  and  _432
REMARK  179  A    between atoms: _432  and  _433
REMARK  180  A    between atoms: _437  and  _439
REMARK  181  A    between atoms: _439  and  _440
REMARK  182  A    between atoms: _439  and  _442
REMARK  183  A    between atoms: _442  and  _443
REMARK  184  A    between atoms: _446  and  _448
REMARK  185  A    between atoms: _448  and  _449
REMARK  186  A    between atoms: _448  and  _451
REMARK  187  A    between atoms: _451  and  _452
REMARK  188  A    between atoms: _455  and  _457
REMARK  189  A    between atoms: _457  and  _458
REMARK  190  A    between atoms: _457  and  _460
REMARK  191  A    between atoms: _460  and  _461
REMARK  192  A    between atoms: _464  and  _466
REMARK  193  A    between atoms: _466  and  _467
REMARK  194  A    between atoms: _466  and  _469
REMARK  195  A    between atoms: _469  and  _470
REMARK                            x       y       z     vdW  Elec       q    Type
REMARK                         _______ _______ _______ _____ _____    ______ ____
ROOT
ATOM      1  O   HOH     1      15.002   4.602 -20.300  0.00  0.00    +0.000 OA
ENDROOT
TORSDOF 0
REMARK  Name = ../refined-set-2016/3hub/3hub_pocket.pdb
REMARK  195 active torsions:
REMARK  status: ('A' for Active; 'I' for Inactive)
REMARK    1  A    between atoms: _1  and  _3
REMARK    2  A    between atoms: _3  and  _4
REMARK    3  A    between atoms: _3  and  _6
REMARK    4  A    between atoms: _6  and  _7
REMARK    5  A    between atoms: _10  and  _11
REMARK    6  A    between atoms: _16  and  _18
REMARK    7  A    between atoms: _18  and  _19
REMARK    8  A    between atoms: _18  and  _21
REMARK    9  A    between atoms: _24  and  _26
REMARK   10  A    between atoms: _26  and  _27
REMARK   11  A    between atoms: _29  and  _31
REMARK   12  A    between atoms: _31  and  _32
REMARK   13  A    between atoms: _31  and  _34
REMARK   14  A    between atoms: _34  and  _35
REMARK   15  A    between atoms: _37  and  _39
REMARK   16  A    between atoms: _39  and  _40
REMARK   17  A    between atoms: _42  and  _44
REMARK   18  A    between atoms: _44  and  _45
REMARK   19  A    between atoms: _48  and  _50
REMARK   20  A    between atoms: _50  and  _51
REMARK   21  A    between atoms: _50  and  _53
REMARK   22  A    between atoms: _53  and  _54
REMARK   23  A    between atoms: _59  and  _60
REMARK   24  A    between atoms: _62  and  _64
REMARK   25  A    between atoms: _64  and  _65
REMARK   26  A    between atoms: _67  and  _69
REMARK   27  A    between atoms: _69  and  _70
REMARK   28  A    between atoms: _69  and  _72
REMARK   29  A    between atoms: _72  and  _73
REMARK   30  A    between atoms: _75  and  _77
REMARK   31  A    between atoms: _77  and  _78
REMARK   32  A    between atoms: _77  and  _80
REMARK   33  A    between atoms: _83  and  _85
REMARK   34  A    between atoms: _85  and  _86
REMARK   35  A    between atoms: _85  and  _88
REMARK   36  A    between atoms: _90  and  _92
REMARK   37  A    between atoms: _92  and  _93
REMARK   38  A    between atoms: _96  and  _98
REMARK   39  A    between atoms: _98  and  _99
REMARK   40  A    between atoms: _102  and  _104
REMARK   41  A    between atoms: _104  and  _105
REMARK   42  A    between atoms: _104  and  _107
REMARK   43  A    between atoms: _107  and  _108
REMARK   44  A    between atoms: _108  and  _109
REMARK   45  A    between atoms: _109  and  _110
REMARK   46  A    between atoms: _119  and  _121
REMARK   47  A    between atoms: _121  and  _122
REMARK   48  A    between atoms: _121  and  _124
REMARK   49  A    between atoms: _127  and  _129
REMARK   50  A    between atoms: _129  and  _130
REMARK   51  A    between atoms: _133  and  _135
REMARK   52  A    between atoms: _135  and  _136
REMARK   53  A    between atoms: _135  and  _138
REMARK   54  A    between atoms: _141  and  _143
REMARK   55  A    between atoms: _143  and  _144
REMARK   56  A    between atoms: _143  and  _146
REMARK   57  A    between atoms: _146  and  _147
REMARK   58  A    between atoms: _147  and  _148
REMARK   59  A    between atoms: _148  and  _149
REMARK   60  A    between atoms: _149  and  _150
REMARK   61  A    between atoms: _154  and  _156
REMARK   62  A    between atoms: _156  and  _157
REMARK   63  A    between atoms: _156  and  _159
REMARK   64  A    between atoms: _159  and  _160
REMARK   65  A    between atoms: _160  and  _161
REMARK   66  A    between atoms: _161  and  _162
REMARK   67  A    between atoms: _162  and  _163
REMARK   68  A    between atoms: _167  and  _169
REMARK   69  A    between atoms: _169  and  _170
REMARK   70  A    between atoms: _169  and  _172
REMARK   71  A    between atoms: _172  and  _173
REMARK   72  A    between atoms: _176  and  _178
REMARK   73  A    between atoms: _178  and  _179
REMARK   74  A    between atoms: _178  and  _181
REMARK   75  A    between atoms: _181  and  _182
REMARK   76  A    between atoms: _182  and  _183
REMARK   77  A    between atoms: _186  and  _188
REMARK   78  A    between atoms: _188  and  _189
REMARK   79  A    between atoms: _188  and  _191
REMARK   80  A    between atoms: _191  and  _192
REMARK   81  A    between atoms: _195  and  _197
REMARK   82  A    between atoms: _197  and  _198
REMARK   83  A    between atoms: _197  and  _200
REMARK   84  A    between atoms: _200  and  _201
REMARK   85  A    between atoms: _204  and  _206
REMARK   86  A    between atoms: _206  and  _207
REMARK   87  A    between atoms: _209  and  _211
REMARK   88  A    between atoms: _211  and  _212
REMARK   89  A    between atoms: _211  and  _214
REMARK   90  A    between atoms: _214  and  _215
REMARK   91  A    between atoms: _218  and  _220
REMARK   92  A    between atoms: _220  and  _221
REMARK   93  A    between atoms: _220  and  _223
REMARK   94  A    between atoms: _223  and  _224
REMARK   95  A    between atoms: _227  and  _229
REMARK   96  A    between atoms: _229  and  _230
REMARK   97  A    between atoms: _229  and  _232
REMARK   98  A    between atoms: _232  and  _233
REMARK   99  A    between atoms: _236  and  _238
REMARK  100  A    between atoms: _238  and  _239
REMARK  101  A    between atoms: _238  and  _241
REMARK  102  A    between atoms: _244  and  _246
REMARK  103  A    between atoms: _246  and  _247
REMARK  104  A    between atoms: _246  and  _249
REMARK  105  A    between atoms: _249  and  _250
REMARK  106  A    between atoms: _255  and  _256
REMARK  107  A    between atoms: _258  and  _260
REMARK  108  A    between atoms: _260  and  _261
REMARK  109  A    between atoms: _260  and  _263
REMARK  110  A    between atoms: _263  and  _264
REMARK  111  A    between atoms: _267  and  _269
REMARK  112  A    between atoms: _269  and  _270
REMARK  113  A    between atoms: _269  and  _272
REMARK  114  A    between atoms: _275  and  _277
REMARK  115  A    between atoms: _277  and  _278
REMARK  116  A    between atoms: _277  and  _280
REMARK  117  A    between atoms: _280  and  _281
REMARK  118  A    between atoms: _284  and  _286
REMARK  119  A    between atoms: _286  and  _287
REMARK  120  A    between atoms: _286  and  _289
REMARK  121  A    between atoms: _289  and  _290
REMARK  122  A    between atoms: _295  and  _297
REMARK  123  A    between atoms: _297  and  _298
REMARK  124  A    between atoms: _297  and  _300
REMARK  125  A    between atoms: _300  and  _301
REMARK  126  A    between atoms: _304  and  _306
REMARK  127  A    between atoms: _306  and  _307
REMARK  128  A    between atoms: _306  and  _309
REMARK  129  A    between atoms: _309  and  _310
REMARK  130  A    between atoms: _310  and  _311
REMARK  131  A    between atoms: _313  and  _315
REMARK  132  A    between atoms: _315  and  _316
REMARK  133  A    between atoms: _318  and  _320
REMARK  134  A    between atoms: _320  and  _321
REMARK  135  A    between atoms: _324  and  _326
REMARK  136  A    between atoms: _326  and  _327
REMARK  137  A    between atoms: _326  and  _329
REMARK  138  A    between atoms: _329  and  _330
REMARK  139  A    between atoms: _333  and  _335
REMARK  140  A    between atoms: _335  and  _336
REMARK  141  A    between atoms: _335  and  _338
REMARK  142  A    between atoms: _338  and  _339
REMARK  143  A    between atoms: _342  and  _344
REMARK  144  A    between atoms: _344  and  _345
REMARK  145  A    between atoms: _344  and  _347
REMARK  146  A    between atoms: _347  and  _348
REMARK  147  A    between atoms: _353  and  _355
REMARK  148  A    between atoms: _355  and  _356
REMARK  149  A    between atoms: _355  and  _358
REMARK  150  A    between atoms: _358  and  _359
REMARK  151  A    between atoms: _365  and  _366
REMARK  152  A    between atoms: _371  and  _373
REMARK  153  A    between atoms: _373  and  _374
REMARK  154  A    between atoms: _373  and  _376
REMARK  155  A    between atoms: _376  and  _377
REMARK  156  A    between atoms: _379  and  _381
REMARK  157  A    between atoms: _381  and  _382
REMARK  158  A    between atoms: _381  and  _384
REMARK  159  A    between atoms: _384  and  _385
REMARK  160  A    between atoms: _390  and  _392
REMARK  161  A    between atoms: _392  and  _393
REMARK  162  A    between atoms: _392  and  _395
REMARK  163  A    between atoms: _395  and  _396
REMARK  164  A    between atoms: _399  and  _401
REMARK  165  A    between atoms: _401  and  _402
REMARK  166  A    between atoms: _405  and  _407
REMARK  167  A    between atoms: _407  and  _408
REMARK  168  A    between atoms: _407  and  _410
REMARK  169  A    between atoms: _413  and  _415
REMARK  170  A    between atoms: _415  and  _416
REMARK  171  A    between atoms: _415  and  _418
REMARK  172  A    between atoms: _418  and  _419
REMARK  173  A    between atoms: _424  and  _426
REMARK  174  A    between atoms: _426  and  _427
REMARK  175  A    between atoms: _426  and  _429
REMARK  176  A    between atoms: _429  and  _430
REMARK  177  A    between atoms: _430  and  _431
REMARK  178  A    between atoms: _431  and  _432
REMARK  179  A    between atoms: _432  and  _433
REMARK  180  A    between atoms: _437  and  _439
REMARK  181  A    between atoms: _439  and  _440
REMARK  182  A    between atoms: _439  and  _442
REMARK  183  A    between atoms: _442  and  _443
REMARK  184  A    between atoms: _446  and  _448
REMARK  185  A    between atoms: _448  and  _449
REMARK  186  A    between atoms: _448  and  _451
REMARK  187  A    between atoms: _451  and  _452
REMARK  188  A    between atoms: _455  and  _457
REMARK  189  A    between atoms: _457  and  _458
REMARK  190  A    between atoms: _457  and  _460
REMARK  191  A    between atoms: _460  and  _461
REMARK  192  A    between atoms: _464  and  _466
REMARK  193  A    between atoms: _466  and  _467
REMARK  194  A    between atoms: _466  and  _469
REMARK  195  A    between atoms: _469  and  _470
REMARK                            x       y       z     vdW  Elec       q    Type
REMARK                         _______ _______ _______ _____ _____    ______ ____
ROOT
ATOM      1  O   HOH     1      11.656   8.112 -20.462  0.00  0.00    +0.000 OA
ENDROOT
TORSDOF 0
