REMARK  Name = ../refined-set-2016/1lee/1lee_pocket.pdb
REMARK  238 active torsions:
REMARK  status: ('A' for Active; 'I' for Inactive)
REMARK    1  A    between atoms: _1  and  _3
REMARK    2  A    between atoms: _3  and  _4
REMARK    3  A    between atoms: _3  and  _6
REMARK    4  A    between atoms: _6  and  _7
REMARK    5  A    between atoms: _10  and  _12
REMARK    6  A    between atoms: _12  and  _13
REMARK    7  A    between atoms: _12  and  _15
REMARK    8  A    between atoms: _16  and  _17
REMARK    9  A    between atoms: _19  and  _21
REMARK   10  A    between atoms: _21  and  _22
REMARK   11  A    between atoms: _21  and  _24
REMARK   12  A    between atoms: _24  and  _25
REMARK   13  A    between atoms: _30  and  _31
REMARK   14  A    between atoms: _33  and  _35
REMARK   15  A    between atoms: _35  and  _36
REMARK   16  A    between atoms: _35  and  _38
REMARK   17  A    between atoms: _38  and  _39
REMARK   18  A    between atoms: _42  and  _44
REMARK   19  A    between atoms: _44  and  _45
REMARK   20  A    between atoms: _44  and  _47
REMARK   21  A    between atoms: _47  and  _48
REMARK   22  A    between atoms: _51  and  _53
REMARK   23  A    between atoms: _53  and  _54
REMARK   24  A    between atoms: _53  and  _56
REMARK   25  A    between atoms: _56  and  _57
REMARK   26  A    between atoms: _60  and  _62
REMARK   27  A    between atoms: _62  and  _63
REMARK   28  A    between atoms: _62  and  _65
REMARK   29  A    between atoms: _65  and  _66
REMARK   30  A    between atoms: _69  and  _71
REMARK   31  A    between atoms: _71  and  _72
REMARK   32  A    between atoms: _74  and  _76
REMARK   33  A    between atoms: _76  and  _77
REMARK   34  A    between atoms: _76  and  _79
REMARK   35  A    between atoms: _79  and  _80
REMARK   36  A    between atoms: _82  and  _84
REMARK   37  A    between atoms: _84  and  _85
REMARK   38  A    between atoms: _88  and  _90
REMARK   39  A    between atoms: _90  and  _91
REMARK   40  A    between atoms: _90  and  _93
REMARK   41  A    between atoms: _93  and  _94
REMARK   42  A    between atoms: _99  and  _101
REMARK   43  A    between atoms: _101  and  _102
REMARK   44  A    between atoms: _101  and  _104
REMARK   45  A    between atoms: _104  and  _105
REMARK   46  A    between atoms: _115  and  _117
REMARK   47  A    between atoms: _117  and  _118
REMARK   48  A    between atoms: _117  and  _120
REMARK   49  A    between atoms: _123  and  _125
REMARK   50  A    between atoms: _125  and  _126
REMARK   51  A    between atoms: _125  and  _128
REMARK   52  A    between atoms: _128  and  _129
REMARK   53  A    between atoms: _129  and  _130
REMARK   54  A    between atoms: _133  and  _135
REMARK   55  A    between atoms: _135  and  _136
REMARK   56  A    between atoms: _135  and  _138
REMARK   57  A    between atoms: _138  and  _139
REMARK   58  A    between atoms: _139  and  _140
REMARK   59  A    between atoms: _142  and  _144
REMARK   60  A    between atoms: _144  and  _145
REMARK   61  A    between atoms: _144  and  _147
REMARK   62  A    between atoms: _147  and  _148
REMARK   63  A    between atoms: _153  and  _155
REMARK   64  A    between atoms: _155  and  _156
REMARK   65  A    between atoms: _155  and  _158
REMARK   66  A    between atoms: _158  and  _159
REMARK   67  A    between atoms: _164  and  _165
REMARK   68  A    between atoms: _167  and  _169
REMARK   69  A    between atoms: _169  and  _170
REMARK   70  A    between atoms: _169  and  _172
REMARK   71  A    between atoms: _175  and  _177
REMARK   72  A    between atoms: _177  and  _178
REMARK   73  A    between atoms: _177  and  _180
REMARK   74  A    between atoms: _180  and  _181
REMARK   75  A    between atoms: _183  and  _185
REMARK   76  A    between atoms: _185  and  _186
REMARK   77  A    between atoms: _188  and  _190
REMARK   78  A    between atoms: _190  and  _191
REMARK   79  A    between atoms: _190  and  _193
REMARK   80  A    between atoms: _193  and  _194
REMARK   81  A    between atoms: _197  and  _199
REMARK   82  A    between atoms: _199  and  _200
REMARK   83  A    between atoms: _199  and  _202
REMARK   84  A    between atoms: _205  and  _207
REMARK   85  A    between atoms: _207  and  _208
REMARK   86  A    between atoms: _207  and  _210
REMARK   87  A    between atoms: _210  and  _211
REMARK   88  A    between atoms: _217  and  _219
REMARK   89  A    between atoms: _219  and  _220
REMARK   90  A    between atoms: _219  and  _222
REMARK   91  A    between atoms: _222  and  _223
REMARK   92  A    between atoms: _226  and  _228
REMARK   93  A    between atoms: _228  and  _229
REMARK   94  A    between atoms: _228  and  _231
REMARK   95  A    between atoms: _231  and  _232
REMARK   96  A    between atoms: _237  and  _238
REMARK   97  A    between atoms: _240  and  _242
REMARK   98  A    between atoms: _242  and  _243
REMARK   99  A    between atoms: _242  and  _245
REMARK  100  A    between atoms: _245  and  _246
REMARK  101  A    between atoms: _248  and  _250
REMARK  102  A    between atoms: _250  and  _251
REMARK  103  A    between atoms: _250  and  _253
REMARK  104  A    between atoms: _253  and  _254
REMARK  105  A    between atoms: _260  and  _262
REMARK  106  A    between atoms: _262  and  _263
REMARK  107  A    between atoms: _265  and  _267
REMARK  108  A    between atoms: _267  and  _268
REMARK  109  A    between atoms: _267  and  _270
REMARK  110  A    between atoms: _270  and  _271
REMARK  111  A    between atoms: _274  and  _276
REMARK  112  A    between atoms: _276  and  _277
REMARK  113  A    between atoms: _276  and  _279
REMARK  114  A    between atoms: _279  and  _280
REMARK  115  A    between atoms: _283  and  _285
REMARK  116  A    between atoms: _285  and  _286
REMARK  117  A    between atoms: _285  and  _288
REMARK  118  A    between atoms: _288  and  _289
REMARK  119  A    between atoms: _292  and  _294
REMARK  120  A    between atoms: _294  and  _295
REMARK  121  A    between atoms: _297  and  _299
REMARK  122  A    between atoms: _299  and  _300
REMARK  123  A    between atoms: _299  and  _302
REMARK  124  A    between atoms: _302  and  _303
REMARK  125  A    between atoms: _313  and  _315
REMARK  126  A    between atoms: _315  and  _316
REMARK  127  A    between atoms: _315  and  _318
REMARK  128  A    between atoms: _318  and  _319
REMARK  129  A    between atoms: _322  and  _324
REMARK  130  A    between atoms: _324  and  _325
REMARK  131  A    between atoms: _324  and  _327
REMARK  132  A    between atoms: _327  and  _328
REMARK  133  A    between atoms: _331  and  _333
REMARK  134  A    between atoms: _333  and  _334
REMARK  135  A    between atoms: _333  and  _336
REMARK  136  A    between atoms: _336  and  _337
REMARK  137  A    between atoms: _339  and  _341
REMARK  138  A    between atoms: _341  and  _342
REMARK  139  A    between atoms: _341  and  _344
REMARK  140  A    between atoms: _344  and  _345
REMARK  141  A    between atoms: _348  and  _350
REMARK  142  A    between atoms: _350  and  _351
REMARK  143  A    between atoms: _350  and  _353
REMARK  144  A    between atoms: _353  and  _354
REMARK  145  A    between atoms: _357  and  _359
REMARK  146  A    between atoms: _359  and  _360
REMARK  147  A    between atoms: _359  and  _362
REMARK  148  A    between atoms: _362  and  _363
REMARK  149  A    between atoms: _368  and  _369
REMARK  150  A    between atoms: _371  and  _373
REMARK  151  A    between atoms: _373  and  _374
REMARK  152  A    between atoms: _373  and  _376
REMARK  153  A    between atoms: _376  and  _377
REMARK  154  A    between atoms: _387  and  _389
REMARK  155  A    between atoms: _389  and  _390
REMARK  156  A    between atoms: _389  and  _392
REMARK  157  A    between atoms: _392  and  _393
REMARK  158  A    between atoms: _398  and  _400
REMARK  159  A    between atoms: _400  and  _401
REMARK  160  A    between atoms: _400  and  _403
REMARK  161  A    between atoms: _403  and  _404
REMARK  162  A    between atoms: _407  and  _409
REMARK  163  A    between atoms: _409  and  _410
REMARK  164  A    between atoms: _409  and  _412
REMARK  165  A    between atoms: _415  and  _417
REMARK  166  A    between atoms: _417  and  _418
REMARK  167  A    between atoms: _417  and  _420
REMARK  168  A    between atoms: _420  and  _421
REMARK  169  A    between atoms: _424  and  _426
REMARK  170  A    between atoms: _426  and  _427
REMARK  171  A    between atoms: _426  and  _429
REMARK  172  A    between atoms: _429  and  _430
REMARK  173  A    between atoms: _432  and  _434
REMARK  174  A    between atoms: _434  and  _435
REMARK  175  A    between atoms: _437  and  _439
REMARK  176  A    between atoms: _439  and  _440
REMARK  177  A    between atoms: _439  and  _442
REMARK  178  A    between atoms: _442  and  _443
REMARK  179  A    between atoms: _446  and  _448
REMARK  180  A    between atoms: _448  and  _449
REMARK  181  A    between atoms: _448  and  _451
REMARK  182  A    between atoms: _451  and  _452
REMARK  183  A    between atoms: _454  and  _456
REMARK  184  A    between atoms: _456  and  _457
REMARK  185  A    between atoms: _460  and  _462
REMARK  186  A    between atoms: _462  and  _463
REMARK  187  A    between atoms: _462  and  _465
REMARK  188  A    between atoms: _465  and  _466
REMARK  189  A    between atoms: _469  and  _471
REMARK  190  A    between atoms: _471  and  _472
REMARK  191  A    between atoms: _471  and  _474
REMARK  192  A    between atoms: _474  and  _475
REMARK  193  A    between atoms: _478  and  _480
REMARK  194  A    between atoms: _480  and  _481
REMARK  195  A    between atoms: _480  and  _483
REMARK  196  A    between atoms: _487  and  _488
REMARK  197  A    between atoms: _493  and  _495
REMARK  198  A    between atoms: _495  and  _496
REMARK  199  A    between atoms: _495  and  _498
REMARK  200  A    between atoms: _498  and  _499
REMARK  201  A    between atoms: _504  and  _506
REMARK  202  A    between atoms: _506  and  _507
REMARK  203  A    between atoms: _506  and  _509
REMARK  204  A    between atoms: _509  and  _510
REMARK  205  A    between atoms: _513  and  _515
REMARK  206  A    between atoms: _515  and  _516
REMARK  207  A    between atoms: _515  and  _518
REMARK  208  A    between atoms: _518  and  _519
REMARK  209  A    between atoms: _522  and  _524
REMARK  210  A    between atoms: _524  and  _525
REMARK  211  A    between atoms: _524  and  _527
REMARK  212  A    between atoms: _527  and  _528
REMARK  213  A    between atoms: _531  and  _533
REMARK  214  A    between atoms: _533  and  _534
REMARK  215  A    between atoms: _533  and  _536
REMARK  216  A    between atoms: _536  and  _537
REMARK  217  A    between atoms: _543  and  _545
REMARK  218  A    between atoms: _545  and  _546
REMARK  219  A    between atoms: _545  and  _548
REMARK  220  A    between atoms: _548  and  _549
REMARK  221  A    between atoms: _552  and  _554
REMARK  222  A    between atoms: _554  and  _555
REMARK  223  A    between atoms: _554  and  _557
REMARK  224  A    between atoms: _557  and  _558
REMARK  225  A    between atoms: _564  and  _566
REMARK  226  A    between atoms: _566  and  _567
REMARK  227  A    between atoms: _566  and  _569
REMARK  228  A    between atoms: _569  and  _570
REMARK  229  A    between atoms: _573  and  _575
REMARK  230  A    between atoms: _575  and  _576
REMARK  231  A    between atoms: _575  and  _578
REMARK  232  A    between atoms: _578  and  _579
REMARK  233  A    between atoms: _582  and  _584
REMARK  234  A    between atoms: _584  and  _585
REMARK  235  A    between atoms: _587  and  _589
REMARK  236  A    between atoms: _589  and  _590
REMARK  237  A    between atoms: _589  and  _592
REMARK  238  A    between atoms: _592  and  _593
REMARK                            x       y       z     vdW  Elec       q    Type
REMARK                         _______ _______ _______ _____ _____    ______ ____
ROOT
ATOM      1  C   ILE A   1      31.620  19.685  10.105  0.00  0.00    +0.238 C 
ATOM      2  O   ILE A   1      32.155  20.642  10.673  0.00  0.00    -0.274 OA
ATOM      3  N   MET A   2      30.332  19.426  10.244  0.00  0.00    -0.295 N 
ATOM      4  H   MET A   2      29.909  18.580   9.812  0.00  0.00    +0.150 HD
ENDROOT
BRANCH   1   5
ATOM      5  CA  ILE A   1      32.401  18.732   9.196  0.00  0.00    +0.145 C 
BRANCH   5   6
ATOM      6  N   ILE A   1      32.129  17.388   9.661  0.00  0.00    -0.238 NA
ATOM      7  H   ILE A   1      31.240  16.932   9.373  0.00  0.00    +0.142 HD
ENDBRANCH   5   6
BRANCH   5   8
ATOM      8  CB  ILE A   1      31.884  18.946   7.692  0.00  0.00    +0.025 C 
ATOM      9  CG2 ILE A   1      32.351  20.266   7.127  0.00  0.00    +0.002 C 
BRANCH   8  10
ATOM     10  CG1 ILE A   1      32.463  17.911   6.736  0.00  0.00    +0.002 C 
ATOM     11  CD1 ILE A   1      32.243  18.260   5.272  0.00  0.00    +0.000 C 
ENDBRANCH   8  10
ENDBRANCH   5   8
ENDBRANCH   1   5
BRANCH   3  12
ATOM     12  CA  MET A   2      29.528  20.346  11.009  0.00  0.00    +0.160 C 
BRANCH  12  13
ATOM     13  C   MET A   2      28.632  19.586  11.916  0.00  0.00    +0.231 C 
ATOM     14  O   MET A   2      28.392  18.423  11.700  0.00  0.00    -0.286 OA
ENDBRANCH  12  13
BRANCH  12  15
ATOM     15  CB  MET A   2      28.620  21.121  10.050  0.00  0.00    +0.008 C 
ATOM     16  CG  MET A   2      29.199  21.369   8.631  0.00  0.00    +0.028 C 
BRANCH  16  17
ATOM     17  SD  MET A   2      28.116  22.186   7.401  0.00  0.00    -0.113 S 
ATOM     18  CE  MET A   2      27.864  23.867   8.200  0.00  0.00    +0.074 C 
ENDBRANCH  16  17
ENDBRANCH  12  15
ENDBRANCH   3  12
TORSDOF 8
REMARK  Name = ../refined-set-2016/1lee/1lee_pocket.pdb
REMARK  238 active torsions:
REMARK  status: ('A' for Active; 'I' for Inactive)
REMARK    1  A    between atoms: _1  and  _3
REMARK    2  A    between atoms: _3  and  _4
REMARK    3  A    between atoms: _3  and  _6
REMARK    4  A    between atoms: _6  and  _7
REMARK    5  A    between atoms: _10  and  _12
REMARK    6  A    between atoms: _12  and  _13
REMARK    7  A    between atoms: _12  and  _15
REMARK    8  A    between atoms: _16  and  _17
REMARK    9  A    between atoms: _19  and  _21
REMARK   10  A    between atoms: _21  and  _22
REMARK   11  A    between atoms: _21  and  _24
REMARK   12  A    between atoms: _24  and  _25
REMARK   13  A    between atoms: _30  and  _31
REMARK   14  A    between atoms: _33  and  _35
REMARK   15  A    between atoms: _35  and  _36
REMARK   16  A    between atoms: _35  and  _38
REMARK   17  A    between atoms: _38  and  _39
REMARK   18  A    between atoms: _42  and  _44
REMARK   19  A    between atoms: _44  and  _45
REMARK   20  A    between atoms: _44  and  _47
REMARK   21  A    between atoms: _47  and  _48
REMARK   22  A    between atoms: _51  and  _53
REMARK   23  A    between atoms: _53  and  _54
REMARK   24  A    between atoms: _53  and  _56
REMARK   25  A    between atoms: _56  and  _57
REMARK   26  A    between atoms: _60  and  _62
REMARK   27  A    between atoms: _62  and  _63
REMARK   28  A    between atoms: _62  and  _65
REMARK   29  A    between atoms: _65  and  _66
REMARK   30  A    between atoms: _69  and  _71
REMARK   31  A    between atoms: _71  and  _72
REMARK   32  A    between atoms: _74  and  _76
REMARK   33  A    between atoms: _76  and  _77
REMARK   34  A    between atoms: _76  and  _79
REMARK   35  A    between atoms: _79  and  _80
REMARK   36  A    between atoms: _82  and  _84
REMARK   37  A    between atoms: _84  and  _85
REMARK   38  A    between atoms: _88  and  _90
REMARK   39  A    between atoms: _90  and  _91
REMARK   40  A    between atoms: _90  and  _93
REMARK   41  A    between atoms: _93  and  _94
REMARK   42  A    between atoms: _99  and  _101
REMARK   43  A    between atoms: _101  and  _102
REMARK   44  A    between atoms: _101  and  _104
REMARK   45  A    between atoms: _104  and  _105
REMARK   46  A    between atoms: _115  and  _117
REMARK   47  A    between atoms: _117  and  _118
REMARK   48  A    between atoms: _117  and  _120
REMARK   49  A    between atoms: _123  and  _125
REMARK   50  A    between atoms: _125  and  _126
REMARK   51  A    between atoms: _125  and  _128
REMARK   52  A    between atoms: _128  and  _129
REMARK   53  A    between atoms: _129  and  _130
REMARK   54  A    between atoms: _133  and  _135
REMARK   55  A    between atoms: _135  and  _136
REMARK   56  A    between atoms: _135  and  _138
REMARK   57  A    between atoms: _138  and  _139
REMARK   58  A    between atoms: _139  and  _140
REMARK   59  A    between atoms: _142  and  _144
REMARK   60  A    between atoms: _144  and  _145
REMARK   61  A    between atoms: _144  and  _147
REMARK   62  A    between atoms: _147  and  _148
REMARK   63  A    between atoms: _153  and  _155
REMARK   64  A    between atoms: _155  and  _156
REMARK   65  A    between atoms: _155  and  _158
REMARK   66  A    between atoms: _158  and  _159
REMARK   67  A    between atoms: _164  and  _165
REMARK   68  A    between atoms: _167  and  _169
REMARK   69  A    between atoms: _169  and  _170
REMARK   70  A    between atoms: _169  and  _172
REMARK   71  A    between atoms: _175  and  _177
REMARK   72  A    between atoms: _177  and  _178
REMARK   73  A    between atoms: _177  and  _180
REMARK   74  A    between atoms: _180  and  _181
REMARK   75  A    between atoms: _183  and  _185
REMARK   76  A    between atoms: _185  and  _186
REMARK   77  A    between atoms: _188  and  _190
REMARK   78  A    between atoms: _190  and  _191
REMARK   79  A    between atoms: _190  and  _193
REMARK   80  A    between atoms: _193  and  _194
REMARK   81  A    between atoms: _197  and  _199
REMARK   82  A    between atoms: _199  and  _200
REMARK   83  A    between atoms: _199  and  _202
REMARK   84  A    between atoms: _205  and  _207
REMARK   85  A    between atoms: _207  and  _208
REMARK   86  A    between atoms: _207  and  _210
REMARK   87  A    between atoms: _210  and  _211
REMARK   88  A    between atoms: _217  and  _219
REMARK   89  A    between atoms: _219  and  _220
REMARK   90  A    between atoms: _219  and  _222
REMARK   91  A    between atoms: _222  and  _223
REMARK   92  A    between atoms: _226  and  _228
REMARK   93  A    between atoms: _228  and  _229
REMARK   94  A    between atoms: _228  and  _231
REMARK   95  A    between atoms: _231  and  _232
REMARK   96  A    between atoms: _237  and  _238
REMARK   97  A    between atoms: _240  and  _242
REMARK   98  A    between atoms: _242  and  _243
REMARK   99  A    between atoms: _242  and  _245
REMARK  100  A    between atoms: _245  and  _246
REMARK  101  A    between atoms: _248  and  _250
REMARK  102  A    between atoms: _250  and  _251
REMARK  103  A    between atoms: _250  and  _253
REMARK  104  A    between atoms: _253  and  _254
REMARK  105  A    between atoms: _260  and  _262
REMARK  106  A    between atoms: _262  and  _263
REMARK  107  A    between atoms: _265  and  _267
REMARK  108  A    between atoms: _267  and  _268
REMARK  109  A    between atoms: _267  and  _270
REMARK  110  A    between atoms: _270  and  _271
REMARK  111  A    between atoms: _274  and  _276
REMARK  112  A    between atoms: _276  and  _277
REMARK  113  A    between atoms: _276  and  _279
REMARK  114  A    between atoms: _279  and  _280
REMARK  115  A    between atoms: _283  and  _285
REMARK  116  A    between atoms: _285  and  _286
REMARK  117  A    between atoms: _285  and  _288
REMARK  118  A    between atoms: _288  and  _289
REMARK  119  A    between atoms: _292  and  _294
REMARK  120  A    between atoms: _294  and  _295
REMARK  121  A    between atoms: _297  and  _299
REMARK  122  A    between atoms: _299  and  _300
REMARK  123  A    between atoms: _299  and  _302
REMARK  124  A    between atoms: _302  and  _303
REMARK  125  A    between atoms: _313  and  _315
REMARK  126  A    between atoms: _315  and  _316
REMARK  127  A    between atoms: _315  and  _318
REMARK  128  A    between atoms: _318  and  _319
REMARK  129  A    between atoms: _322  and  _324
REMARK  130  A    between atoms: _324  and  _325
REMARK  131  A    between atoms: _324  and  _327
REMARK  132  A    between atoms: _327  and  _328
REMARK  133  A    between atoms: _331  and  _333
REMARK  134  A    between atoms: _333  and  _334
REMARK  135  A    between atoms: _333  and  _336
REMARK  136  A    between atoms: _336  and  _337
REMARK  137  A    between atoms: _339  and  _341
REMARK  138  A    between atoms: _341  and  _342
REMARK  139  A    between atoms: _341  and  _344
REMARK  140  A    between atoms: _344  and  _345
REMARK  141  A    between atoms: _348  and  _350
REMARK  142  A    between atoms: _350  and  _351
REMARK  143  A    between atoms: _350  and  _353
REMARK  144  A    between atoms: _353  and  _354
REMARK  145  A    between atoms: _357  and  _359
REMARK  146  A    between atoms: _359  and  _360
REMARK  147  A    between atoms: _359  and  _362
REMARK  148  A    between atoms: _362  and  _363
REMARK  149  A    between atoms: _368  and  _369
REMARK  150  A    between atoms: _371  and  _373
REMARK  151  A    between atoms: _373  and  _374
REMARK  152  A    between atoms: _373  and  _376
REMARK  153  A    between atoms: _376  and  _377
REMARK  154  A    between atoms: _387  and  _389
REMARK  155  A    between atoms: _389  and  _390
REMARK  156  A    between atoms: _389  and  _392
REMARK  157  A    between atoms: _392  and  _393
REMARK  158  A    between atoms: _398  and  _400
REMARK  159  A    between atoms: _400  and  _401
REMARK  160  A    between atoms: _400  and  _403
REMARK  161  A    between atoms: _403  and  _404
REMARK  162  A    between atoms: _407  and  _409
REMARK  163  A    between atoms: _409  and  _410
REMARK  164  A    between atoms: _409  and  _412
REMARK  165  A    between atoms: _415  and  _417
REMARK  166  A    between atoms: _417  and  _418
REMARK  167  A    between atoms: _417  and  _420
REMARK  168  A    between atoms: _420  and  _421
REMARK  169  A    between atoms: _424  and  _426
REMARK  170  A    between atoms: _426  and  _427
REMARK  171  A    between atoms: _426  and  _429
REMARK  172  A    between atoms: _429  and  _430
REMARK  173  A    between atoms: _432  and  _434
REMARK  174  A    between atoms: _434  and  _435
REMARK  175  A    between atoms: _437  and  _439
REMARK  176  A    between atoms: _439  and  _440
REMARK  177  A    between atoms: _439  and  _442
REMARK  178  A    between atoms: _442  and  _443
REMARK  179  A    between atoms: _446  and  _448
REMARK  180  A    between atoms: _448  and  _449
REMARK  181  A    between atoms: _448  and  _451
REMARK  182  A    between atoms: _451  and  _452
REMARK  183  A    between atoms: _454  and  _456
REMARK  184  A    between atoms: _456  and  _457
REMARK  185  A    between atoms: _460  and  _462
REMARK  186  A    between atoms: _462  and  _463
REMARK  187  A    between atoms: _462  and  _465
REMARK  188  A    between atoms: _465  and  _466
REMARK  189  A    between atoms: _469  and  _471
REMARK  190  A    between atoms: _471  and  _472
REMARK  191  A    between atoms: _471  and  _474
REMARK  192  A    between atoms: _474  and  _475
REMARK  193  A    between atoms: _478  and  _480
REMARK  194  A    between atoms: _480  and  _481
REMARK  195  A    between atoms: _480  and  _483
REMARK  196  A    between atoms: _487  and  _488
REMARK  197  A    between atoms: _493  and  _495
REMARK  198  A    between atoms: _495  and  _496
REMARK  199  A    between atoms: _495  and  _498
REMARK  200  A    between atoms: _498  and  _499
REMARK  201  A    between atoms: _504  and  _506
REMARK  202  A    between atoms: _506  and  _507
REMARK  203  A    between atoms: _506  and  _509
REMARK  204  A    between atoms: _509  and  _510
REMARK  205  A    between atoms: _513  and  _515
REMARK  206  A    between atoms: _515  and  _516
REMARK  207  A    between atoms: _515  and  _518
REMARK  208  A    between atoms: _518  and  _519
REMARK  209  A    between atoms: _522  and  _524
REMARK  210  A    between atoms: _524  and  _525
REMARK  211  A    between atoms: _524  and  _527
REMARK  212  A    between atoms: _527  and  _528
REMARK  213  A    between atoms: _531  and  _533
REMARK  214  A    between atoms: _533  and  _534
REMARK  215  A    between atoms: _533  and  _536
REMARK  216  A    between atoms: _536  and  _537
REMARK  217  A    between atoms: _543  and  _545
REMARK  218  A    between atoms: _545  and  _546
REMARK  219  A    between atoms: _545  and  _548
REMARK  220  A    between atoms: _548  and  _549
REMARK  221  A    between atoms: _552  and  _554
REMARK  222  A    between atoms: _554  and  _555
REMARK  223  A    between atoms: _554  and  _557
REMARK  224  A    between atoms: _557  and  _558
REMARK  225  A    between atoms: _564  and  _566
REMARK  226  A    between atoms: _566  and  _567
REMARK  227  A    between atoms: _566  and  _569
REMARK  228  A    between atoms: _569  and  _570
REMARK  229  A    between atoms: _573  and  _575
REMARK  230  A    between atoms: _575  and  _576
REMARK  231  A    between atoms: _575  and  _578
REMARK  232  A    between atoms: _578  and  _579
REMARK  233  A    between atoms: _582  and  _584
REMARK  234  A    between atoms: _584  and  _585
REMARK  235  A    between atoms: _587  and  _589
REMARK  236  A    between atoms: _589  and  _590
REMARK  237  A    between atoms: _589  and  _592
REMARK  238  A    between atoms: _592  and  _593
REMARK                            x       y       z     vdW  Elec       q    Type
REMARK                         _______ _______ _______ _____ _____    ______ ____
ROOT
ATOM      1  CG  TYR A   1      23.359  21.334  12.206  0.00  0.00    -0.020 A 
ATOM      2  CD2 TYR A   1      23.894  22.569  11.821  0.00  0.00    -0.001 A 
ATOM      3  CE2 TYR A   1      24.575  22.710  10.613  0.00  0.00    +0.036 A 
ATOM      4  CZ  TYR A   1      24.704  21.601   9.780  0.00  0.00    +0.134 A 
ATOM      5  CE1 TYR A   1      24.153  20.375  10.145  0.00  0.00    +0.036 A 
ATOM      6  CD1 TYR A   1      23.494  20.249  11.351  0.00  0.00    -0.001 A 
ENDROOT
BRANCH   4   7
ATOM      7  OH  TYR A   1      25.449  21.656   8.611  0.00  0.00    -0.506 OA
ATOM      8  HH  TYR A   1      25.070  22.347   8.012  0.00  0.00    +0.292 HD
ENDBRANCH   4   7
BRANCH   1   9
ATOM      9  CB  TYR A   1      22.710  21.153  13.563  0.00  0.00    +0.051 C 
BRANCH   9  10
ATOM     10  CA  TYR A   1      23.703  21.077  14.735  0.00  0.00    +0.137 C 
BRANCH  10  11
ATOM     11  N   TYR A   1      24.820  20.138  14.436  0.00  0.00    -0.239 NA
ATOM     12  H   TYR A   1      24.676  19.113  14.534  0.00  0.00    +0.142 HD
ENDBRANCH  10  11
BRANCH  10  13
ATOM     13  C   TYR A   1      22.916  20.683  15.995  0.00  0.00    +0.224 C 
ATOM     14  O   TYR A   1      23.048  19.579  16.466  0.00  0.00    -0.287 OA
ENDBRANCH  10  13
ENDBRANCH   9  10
ENDBRANCH   1   9
TORSDOF 5
REMARK  Name = ../refined-set-2016/1lee/1lee_pocket.pdb
REMARK  238 active torsions:
REMARK  status: ('A' for Active; 'I' for Inactive)
REMARK    1  A    between atoms: _1  and  _3
REMARK    2  A    between atoms: _3  and  _4
REMARK    3  A    between atoms: _3  and  _6
REMARK    4  A    between atoms: _6  and  _7
REMARK    5  A    between atoms: _10  and  _12
REMARK    6  A    between atoms: _12  and  _13
REMARK    7  A    between atoms: _12  and  _15
REMARK    8  A    between atoms: _16  and  _17
REMARK    9  A    between atoms: _19  and  _21
REMARK   10  A    between atoms: _21  and  _22
REMARK   11  A    between atoms: _21  and  _24
REMARK   12  A    between atoms: _24  and  _25
REMARK   13  A    between atoms: _30  and  _31
REMARK   14  A    between atoms: _33  and  _35
REMARK   15  A    between atoms: _35  and  _36
REMARK   16  A    between atoms: _35  and  _38
REMARK   17  A    between atoms: _38  and  _39
REMARK   18  A    between atoms: _42  and  _44
REMARK   19  A    between atoms: _44  and  _45
REMARK   20  A    between atoms: _44  and  _47
REMARK   21  A    between atoms: _47  and  _48
REMARK   22  A    between atoms: _51  and  _53
REMARK   23  A    between atoms: _53  and  _54
REMARK   24  A    between atoms: _53  and  _56
REMARK   25  A    between atoms: _56  and  _57
REMARK   26  A    between atoms: _60  and  _62
REMARK   27  A    between atoms: _62  and  _63
REMARK   28  A    between atoms: _62  and  _65
REMARK   29  A    between atoms: _65  and  _66
REMARK   30  A    between atoms: _69  and  _71
REMARK   31  A    between atoms: _71  and  _72
REMARK   32  A    between atoms: _74  and  _76
REMARK   33  A    between atoms: _76  and  _77
REMARK   34  A    between atoms: _76  and  _79
REMARK   35  A    between atoms: _79  and  _80
REMARK   36  A    between atoms: _82  and  _84
REMARK   37  A    between atoms: _84  and  _85
REMARK   38  A    between atoms: _88  and  _90
REMARK   39  A    between atoms: _90  and  _91
REMARK   40  A    between atoms: _90  and  _93
REMARK   41  A    between atoms: _93  and  _94
REMARK   42  A    between atoms: _99  and  _101
REMARK   43  A    between atoms: _101  and  _102
REMARK   44  A    between atoms: _101  and  _104
REMARK   45  A    between atoms: _104  and  _105
REMARK   46  A    between atoms: _115  and  _117
REMARK   47  A    between atoms: _117  and  _118
REMARK   48  A    between atoms: _117  and  _120
REMARK   49  A    between atoms: _123  and  _125
REMARK   50  A    between atoms: _125  and  _126
REMARK   51  A    between atoms: _125  and  _128
REMARK   52  A    between atoms: _128  and  _129
REMARK   53  A    between atoms: _129  and  _130
REMARK   54  A    between atoms: _133  and  _135
REMARK   55  A    between atoms: _135  and  _136
REMARK   56  A    between atoms: _135  and  _138
REMARK   57  A    between atoms: _138  and  _139
REMARK   58  A    between atoms: _139  and  _140
REMARK   59  A    between atoms: _142  and  _144
REMARK   60  A    between atoms: _144  and  _145
REMARK   61  A    between atoms: _144  and  _147
REMARK   62  A    between atoms: _147  and  _148
REMARK   63  A    between atoms: _153  and  _155
REMARK   64  A    between atoms: _155  and  _156
REMARK   65  A    between atoms: _155  and  _158
REMARK   66  A    between atoms: _158  and  _159
REMARK   67  A    between atoms: _164  and  _165
REMARK   68  A    between atoms: _167  and  _169
REMARK   69  A    between atoms: _169  and  _170
REMARK   70  A    between atoms: _169  and  _172
REMARK   71  A    between atoms: _175  and  _177
REMARK   72  A    between atoms: _177  and  _178
REMARK   73  A    between atoms: _177  and  _180
REMARK   74  A    between atoms: _180  and  _181
REMARK   75  A    between atoms: _183  and  _185
REMARK   76  A    between atoms: _185  and  _186
REMARK   77  A    between atoms: _188  and  _190
REMARK   78  A    between atoms: _190  and  _191
REMARK   79  A    between atoms: _190  and  _193
REMARK   80  A    between atoms: _193  and  _194
REMARK   81  A    between atoms: _197  and  _199
REMARK   82  A    between atoms: _199  and  _200
REMARK   83  A    between atoms: _199  and  _202
REMARK   84  A    between atoms: _205  and  _207
REMARK   85  A    between atoms: _207  and  _208
REMARK   86  A    between atoms: _207  and  _210
REMARK   87  A    between atoms: _210  and  _211
REMARK   88  A    between atoms: _217  and  _219
REMARK   89  A    between atoms: _219  and  _220
REMARK   90  A    between atoms: _219  and  _222
REMARK   91  A    between atoms: _222  and  _223
REMARK   92  A    between atoms: _226  and  _228
REMARK   93  A    between atoms: _228  and  _229
REMARK   94  A    between atoms: _228  and  _231
REMARK   95  A    between atoms: _231  and  _232
REMARK   96  A    between atoms: _237  and  _238
REMARK   97  A    between atoms: _240  and  _242
REMARK   98  A    between atoms: _242  and  _243
REMARK   99  A    between atoms: _242  and  _245
REMARK  100  A    between atoms: _245  and  _246
REMARK  101  A    between atoms: _248  and  _250
REMARK  102  A    between atoms: _250  and  _251
REMARK  103  A    between atoms: _250  and  _253
REMARK  104  A    between atoms: _253  and  _254
REMARK  105  A    between atoms: _260  and  _262
REMARK  106  A    between atoms: _262  and  _263
REMARK  107  A    between atoms: _265  and  _267
REMARK  108  A    between atoms: _267  and  _268
REMARK  109  A    between atoms: _267  and  _270
REMARK  110  A    between atoms: _270  and  _271
REMARK  111  A    between atoms: _274  and  _276
REMARK  112  A    between atoms: _276  and  _277
REMARK  113  A    between atoms: _276  and  _279
REMARK  114  A    between atoms: _279  and  _280
REMARK  115  A    between atoms: _283  and  _285
REMARK  116  A    between atoms: _285  and  _286
REMARK  117  A    between atoms: _285  and  _288
REMARK  118  A    between atoms: _288  and  _289
REMARK  119  A    between atoms: _292  and  _294
REMARK  120  A    between atoms: _294  and  _295
REMARK  121  A    between atoms: _297  and  _299
REMARK  122  A    between atoms: _299  and  _300
REMARK  123  A    between atoms: _299  and  _302
REMARK  124  A    between atoms: _302  and  _303
REMARK  125  A    between atoms: _313  and  _315
REMARK  126  A    between atoms: _315  and  _316
REMARK  127  A    between atoms: _315  and  _318
REMARK  128  A    between atoms: _318  and  _319
REMARK  129  A    between atoms: _322  and  _324
REMARK  130  A    between atoms: _324  and  _325
REMARK  131  A    between atoms: _324  and  _327
REMARK  132  A    between atoms: _327  and  _328
REMARK  133  A    between atoms: _331  and  _333
REMARK  134  A    between atoms: _333  and  _334
REMARK  135  A    between atoms: _333  and  _336
REMARK  136  A    between atoms: _336  and  _337
REMARK  137  A    between atoms: _339  and  _341
REMARK  138  A    between atoms: _341  and  _342
REMARK  139  A    between atoms: _341  and  _344
REMARK  140  A    between atoms: _344  and  _345
REMARK  141  A    between atoms: _348  and  _350
REMARK  142  A    between atoms: _350  and  _351
REMARK  143  A    between atoms: _350  and  _353
REMARK  144  A    between atoms: _353  and  _354
REMARK  145  A    between atoms: _357  and  _359
REMARK  146  A    between atoms: _359  and  _360
REMARK  147  A    between atoms: _359  and  _362
REMARK  148  A    between atoms: _362  and  _363
REMARK  149  A    between atoms: _368  and  _369
REMARK  150  A    between atoms: _371  and  _373
REMARK  151  A    between atoms: _373  and  _374
REMARK  152  A    between atoms: _373  and  _376
REMARK  153  A    between atoms: _376  and  _377
REMARK  154  A    between atoms: _387  and  _389
REMARK  155  A    between atoms: _389  and  _390
REMARK  156  A    between atoms: _389  and  _392
REMARK  157  A    between atoms: _392  and  _393
REMARK  158  A    between atoms: _398  and  _400
REMARK  159  A    between atoms: _400  and  _401
REMARK  160  A    between atoms: _400  and  _403
REMARK  161  A    between atoms: _403  and  _404
REMARK  162  A    between atoms: _407  and  _409
REMARK  163  A    between atoms: _409  and  _410
REMARK  164  A    between atoms: _409  and  _412
REMARK  165  A    between atoms: _415  and  _417
REMARK  166  A    between atoms: _417  and  _418
REMARK  167  A    between atoms: _417  and  _420
REMARK  168  A    between atoms: _420  and  _421
REMARK  169  A    between atoms: _424  and  _426
REMARK  170  A    between atoms: _426  and  _427
REMARK  171  A    between atoms: _426  and  _429
REMARK  172  A    between atoms: _429  and  _430
REMARK  173  A    between atoms: _432  and  _434
REMARK  174  A    between atoms: _434  and  _435
REMARK  175  A    between atoms: _437  and  _439
REMARK  176  A    between atoms: _439  and  _440
REMARK  177  A    between atoms: _439  and  _442
REMARK  178  A    between atoms: _442  and  _443
REMARK  179  A    between atoms: _446  and  _448
REMARK  180  A    between atoms: _448  and  _449
REMARK  181  A    between atoms: _448  and  _451
REMARK  182  A    between atoms: _451  and  _452
REMARK  183  A    between atoms: _454  and  _456
REMARK  184  A    between atoms: _456  and  _457
REMARK  185  A    between atoms: _460  and  _462
REMARK  186  A    between atoms: _462  and  _463
REMARK  187  A    between atoms: _462  and  _465
REMARK  188  A    between atoms: _465  and  _466
REMARK  189  A    between atoms: _469  and  _471
REMARK  190  A    between atoms: _471  and  _472
REMARK  191  A    between atoms: _471  and  _474
REMARK  192  A    between atoms: _474  and  _475
REMARK  193  A    between atoms: _478  and  _480
REMARK  194  A    between atoms: _480  and  _481
REMARK  195  A    between atoms: _480  and  _483
REMARK  196  A    between atoms: _487  and  _488
REMARK  197  A    between atoms: _493  and  _495
REMARK  198  A    between atoms: _495  and  _496
REMARK  199  A    between atoms: _495  and  _498
REMARK  200  A    between atoms: _498  and  _499
REMARK  201  A    between atoms: _504  and  _506
REMARK  202  A    between atoms: _506  and  _507
REMARK  203  A    between atoms: _506  and  _509
REMARK  204  A    between atoms: _509  and  _510
REMARK  205  A    between atoms: _513  and  _515
REMARK  206  A    between atoms: _515  and  _516
REMARK  207  A    between atoms: _515  and  _518
REMARK  208  A    between atoms: _518  and  _519
REMARK  209  A    between atoms: _522  and  _524
REMARK  210  A    between atoms: _524  and  _525
REMARK  211  A    between atoms: _524  and  _527
REMARK  212  A    between atoms: _527  and  _528
REMARK  213  A    between atoms: _531  and  _533
REMARK  214  A    between atoms: _533  and  _534
REMARK  215  A    between atoms: _533  and  _536
REMARK  216  A    between atoms: _536  and  _537
REMARK  217  A    between atoms: _543  and  _545
REMARK  218  A    between atoms: _545  and  _546
REMARK  219  A    between atoms: _545  and  _548
REMARK  220  A    between atoms: _548  and  _549
REMARK  221  A    between atoms: _552  and  _554
REMARK  222  A    between atoms: _554  and  _555
REMARK  223  A    between atoms: _554  and  _557
REMARK  224  A    between atoms: _557  and  _558
REMARK  225  A    between atoms: _564  and  _566
REMARK  226  A    between atoms: _566  and  _567
REMARK  227  A    between atoms: _566  and  _569
REMARK  228  A    between atoms: _569  and  _570
REMARK  229  A    between atoms: _573  and  _575
REMARK  230  A    between atoms: _575  and  _576
REMARK  231  A    between atoms: _575  and  _578
REMARK  232  A    between atoms: _578  and  _579
REMARK  233  A    between atoms: _582  and  _584
REMARK  234  A    between atoms: _584  and  _585
REMARK  235  A    between atoms: _587  and  _589
REMARK  236  A    between atoms: _589  and  _590
REMARK  237  A    between atoms: _589  and  _592
REMARK  238  A    between atoms: _592  and  _593
REMARK                            x       y       z     vdW  Elec       q    Type
REMARK                         _______ _______ _______ _____ _____    ______ ____
ROOT
ATOM      1  CA  THR A   4      30.517  29.966  20.899  0.00  0.00    +0.176 C 
ENDROOT
BRANCH   1   3
ATOM      2  C   ASP A   3      28.672  29.829  19.315  0.00  0.00    +0.241 C 
ATOM      3  N   THR A   4      29.763  29.242  19.845  0.00  0.00    -0.295 N 
ATOM      4  H   THR A   4      30.070  28.302  19.523  0.00  0.00    +0.150 HD
ATOM      5  O   ASP A   3      28.290  30.963  19.631  0.00  0.00    -0.273 OA
BRANCH   2   6
ATOM      6  CA  ASP A   3      27.946  29.083  18.207  0.00  0.00    +0.160 C 
BRANCH   6   8
ATOM      7  C   LEU A   2      26.649  27.080  18.287  0.00  0.00    +0.241 C 
ATOM      8  N   ASP A   3      26.711  28.381  18.437  0.00  0.00    -0.297 N 
ATOM      9  H   ASP A   3      25.862  28.909  18.724  0.00  0.00    +0.150 HD
ATOM     10  O   LEU A   2      27.651  26.386  18.245  0.00  0.00    -0.273 OA
BRANCH   7  11
ATOM     11  CA  LEU A   2      25.248  26.467  18.303  0.00  0.00    +0.149 C 
BRANCH  11  13
ATOM     12  C   ILE A   1      24.576  26.812  15.962  0.00  0.00    +0.238 C 
ATOM     13  N   LEU A   2      25.079  26.030  16.908  0.00  0.00    -0.297 N 
ATOM     14  H   LEU A   2      25.367  25.064  16.652  0.00  0.00    +0.150 HD
ATOM     15  O   ILE A   1      24.208  27.942  16.195  0.00  0.00    -0.274 OA
BRANCH  12  16
ATOM     16  CA  ILE A   1      24.445  26.244  14.511  0.00  0.00    +0.145 C 
BRANCH  16  17
ATOM     17  N   ILE A   1      22.990  26.409  14.400  0.00  0.00    -0.238 NA
ATOM     18  H   ILE A   1      22.616  27.312  14.045  0.00  0.00    +0.142 HD
ENDBRANCH  16  17
BRANCH  16  19
ATOM     19  CB  ILE A   1      25.261  27.251  13.626  0.00  0.00    +0.025 C 
ATOM     20  CG2 ILE A   1      26.696  27.467  14.221  0.00  0.00    +0.002 C 
BRANCH  19  21
ATOM     21  CG1 ILE A   1      25.223  26.881  12.128  0.00  0.00    +0.002 C 
ATOM     22  CD1 ILE A   1      26.037  25.697  11.722  0.00  0.00    +0.000 C 
ENDBRANCH  19  21
ENDBRANCH  16  19
ENDBRANCH  12  16
ENDBRANCH  11  13
BRANCH  11  23
ATOM     23  CB  LEU A   2      25.090  25.238  19.213  0.00  0.00    +0.029 C 
BRANCH  23  24
ATOM     24  CG  LEU A   2      23.689  24.589  19.097  0.00  0.00    +0.002 C 
ATOM     25  CD2 LEU A   2      23.676  23.216  19.768  0.00  0.00    +0.000 C 
ATOM     26  CD1 LEU A   2      22.585  25.520  19.649  0.00  0.00    +0.000 C 
ENDBRANCH  23  24
ENDBRANCH  11  23
ENDBRANCH   7  11
ENDBRANCH   6   8
BRANCH   6  27
ATOM     27  CB  ASP A   3      27.612  30.017  17.022  0.00  0.00    +0.143 C 
BRANCH  27  28
ATOM     28  CG  ASP A   3      28.793  30.807  16.501  0.00  0.00    +0.367 C 
ATOM     29  OD2 ASP A   3      29.927  30.252  16.461  0.00  0.00    -0.246 OA
ATOM     30  OD1 ASP A   3      28.549  31.994  16.152  0.00  0.00    -0.246 OA
ENDBRANCH  27  28
ENDBRANCH   6  27
ENDBRANCH   2   6
ENDBRANCH   1   3
BRANCH   1  31
ATOM     31  C   THR A   4      31.224  31.208  20.358  0.00  0.00    +0.243 C 
ATOM     32  O   THR A   4      31.753  32.027  21.127  0.00  0.00    -0.273 OA
ATOM     33  N   GLY A   5      31.163  31.406  19.027  0.00  0.00    -0.295 N 
ATOM     34  H   GLY A   5      30.681  30.720  18.412  0.00  0.00    +0.150 HD
BRANCH  33  35
ATOM     35  CA  GLY A   5      31.776  32.582  18.470  0.00  0.00    +0.176 C 
BRANCH  35  36
ATOM     36  C   GLY A   5      30.894  33.765  18.084  0.00  0.00    +0.243 C 
ATOM     37  N   SER A   6      29.667  33.840  18.558  0.00  0.00    -0.295 N 
ATOM     38  H   SER A   6      29.312  33.048  19.131  0.00  0.00    +0.150 HD
ATOM     39  O   GLY A   5      31.296  34.563  17.287  0.00  0.00    -0.273 OA
BRANCH  37  40
ATOM     40  CA  SER A   6      28.776  34.977  18.323  0.00  0.00    +0.178 C 
BRANCH  40  41
ATOM     41  C   SER A   6      27.880  34.985  19.613  0.00  0.00    +0.243 C 
ATOM     42  O   SER A   6      27.969  34.078  20.453  0.00  0.00    -0.273 OA
ATOM     43  N   ALA A   7      27.070  36.019  19.743  0.00  0.00    -0.297 N 
ATOM     44  H   ALA A   7      27.029  36.725  18.980  0.00  0.00    +0.150 HD
BRANCH  43  45
ATOM     45  CA  ALA A   7      26.238  36.202  20.912  0.00  0.00    +0.149 C 
ATOM     46  CB  ALA A   7      26.956  37.207  21.832  0.00  0.00    +0.031 C 
BRANCH  45  47
ATOM     47  C   ALA A   7      24.754  36.588  20.697  0.00  0.00    +0.241 C 
ATOM     48  O   ALA A   7      24.182  37.261  21.549  0.00  0.00    -0.273 OA
ATOM     49  N   ASN A   8      24.139  36.174  19.573  0.00  0.00    -0.298 N 
ATOM     50  H   ASN A   8      24.680  35.628  18.872  0.00  0.00    +0.150 HD
BRANCH  49  51
ATOM     51  CA  ASN A   8      22.699  36.478  19.305  0.00  0.00    +0.146 C 
BRANCH  51  52
ATOM     52  C   ASN A   8      22.043  35.243  18.750  0.00  0.00    +0.227 C 
ATOM     53  O   ASN A   8      22.715  34.349  18.181  0.00  0.00    -0.286 OA
ENDBRANCH  51  52
BRANCH  51  54
ATOM     54  CB  ASN A   8      22.478  37.583  18.258  0.00  0.00    +0.112 C 
BRANCH  54  55
ATOM     55  CG  ASN A   8      22.924  38.930  18.710  0.00  0.00    +0.222 C 
ATOM     56  ND2 ASN A   8      21.995  39.720  19.238  0.00  0.00    -0.329 N 
ATOM     57 HD21 ASN A   8      22.229  40.702  19.489  0.00  0.00    +0.145 HD
ATOM     58 HD22 ASN A   8      21.034  39.356  19.401  0.00  0.00    +0.145 HD
ATOM     59  OD1 ASN A   8      24.059  39.314  18.503  0.00  0.00    -0.275 OA
ENDBRANCH  54  55
ENDBRANCH  51  54
ENDBRANCH  49  51
ENDBRANCH  45  47
ENDBRANCH  43  45
ENDBRANCH  40  41
BRANCH  40  60
ATOM     60  CB  SER A   6      27.923  34.883  16.998  0.00  0.00    +0.166 C 
BRANCH  60  61
ATOM     61  OG  SER A   6      27.057  33.757  16.946  0.00  0.00    -0.380 OA
ATOM     62  H   SER A   6      27.593  32.927  17.009  0.00  0.00    +0.211 HD
ENDBRANCH  60  61
ENDBRANCH  40  60
ENDBRANCH  37  40
ENDBRANCH  35  36
ENDBRANCH  33  35
ENDBRANCH   1  31
BRANCH   1  63
ATOM     63  CB  THR A   4      31.540  29.078  21.665  0.00  0.00    +0.137 C 
ATOM     64  CG2 THR A   4      30.842  27.971  22.455  0.00  0.00    +0.034 C 
BRANCH  63  65
ATOM     65  OG1 THR A   4      32.497  28.499  20.768  0.00  0.00    -0.382 OA
ATOM     66  HG1 THR A   4      33.133  27.941  21.282  0.00  0.00    +0.210 HD
ENDBRANCH  63  65
ENDBRANCH   1  63
TORSDOF 28
REMARK  Name = ../refined-set-2016/1lee/1lee_pocket.pdb
REMARK  238 active torsions:
REMARK  status: ('A' for Active; 'I' for Inactive)
REMARK    1  A    between atoms: _1  and  _3
REMARK    2  A    between atoms: _3  and  _4
REMARK    3  A    between atoms: _3  and  _6
REMARK    4  A    between atoms: _6  and  _7
REMARK    5  A    between atoms: _10  and  _12
REMARK    6  A    between atoms: _12  and  _13
REMARK    7  A    between atoms: _12  and  _15
REMARK    8  A    between atoms: _16  and  _17
REMARK    9  A    between atoms: _19  and  _21
REMARK   10  A    between atoms: _21  and  _22
REMARK   11  A    between atoms: _21  and  _24
REMARK   12  A    between atoms: _24  and  _25
REMARK   13  A    between atoms: _30  and  _31
REMARK   14  A    between atoms: _33  and  _35
REMARK   15  A    between atoms: _35  and  _36
REMARK   16  A    between atoms: _35  and  _38
REMARK   17  A    between atoms: _38  and  _39
REMARK   18  A    between atoms: _42  and  _44
REMARK   19  A    between atoms: _44  and  _45
REMARK   20  A    between atoms: _44  and  _47
REMARK   21  A    between atoms: _47  and  _48
REMARK   22  A    between atoms: _51  and  _53
REMARK   23  A    between atoms: _53  and  _54
REMARK   24  A    between atoms: _53  and  _56
REMARK   25  A    between atoms: _56  and  _57
REMARK   26  A    between atoms: _60  and  _62
REMARK   27  A    between atoms: _62  and  _63
REMARK   28  A    between atoms: _62  and  _65
REMARK   29  A    between atoms: _65  and  _66
REMARK   30  A    between atoms: _69  and  _71
REMARK   31  A    between atoms: _71  and  _72
REMARK   32  A    between atoms: _74  and  _76
REMARK   33  A    between atoms: _76  and  _77
REMARK   34  A    between atoms: _76  and  _79
REMARK   35  A    between atoms: _79  and  _80
REMARK   36  A    between atoms: _82  and  _84
REMARK   37  A    between atoms: _84  and  _85
REMARK   38  A    between atoms: _88  and  _90
REMARK   39  A    between atoms: _90  and  _91
REMARK   40  A    between atoms: _90  and  _93
REMARK   41  A    between atoms: _93  and  _94
REMARK   42  A    between atoms: _99  and  _101
REMARK   43  A    between atoms: _101  and  _102
REMARK   44  A    between atoms: _101  and  _104
REMARK   45  A    between atoms: _104  and  _105
REMARK   46  A    between atoms: _115  and  _117
REMARK   47  A    between atoms: _117  and  _118
REMARK   48  A    between atoms: _117  and  _120
REMARK   49  A    between atoms: _123  and  _125
REMARK   50  A    between atoms: _125  and  _126
REMARK   51  A    between atoms: _125  and  _128
REMARK   52  A    between atoms: _128  and  _129
REMARK   53  A    between atoms: _129  and  _130
REMARK   54  A    between atoms: _133  and  _135
REMARK   55  A    between atoms: _135  and  _136
REMARK   56  A    between atoms: _135  and  _138
REMARK   57  A    between atoms: _138  and  _139
REMARK   58  A    between atoms: _139  and  _140
REMARK   59  A    between atoms: _142  and  _144
REMARK   60  A    between atoms: _144  and  _145
REMARK   61  A    between atoms: _144  and  _147
REMARK   62  A    between atoms: _147  and  _148
REMARK   63  A    between atoms: _153  and  _155
REMARK   64  A    between atoms: _155  and  _156
REMARK   65  A    between atoms: _155  and  _158
REMARK   66  A    between atoms: _158  and  _159
REMARK   67  A    between atoms: _164  and  _165
REMARK   68  A    between atoms: _167  and  _169
REMARK   69  A    between atoms: _169  and  _170
REMARK   70  A    between atoms: _169  and  _172
REMARK   71  A    between atoms: _175  and  _177
REMARK   72  A    between atoms: _177  and  _178
REMARK   73  A    between atoms: _177  and  _180
REMARK   74  A    between atoms: _180  and  _181
REMARK   75  A    between atoms: _183  and  _185
REMARK   76  A    between atoms: _185  and  _186
REMARK   77  A    between atoms: _188  and  _190
REMARK   78  A    between atoms: _190  and  _191
REMARK   79  A    between atoms: _190  and  _193
REMARK   80  A    between atoms: _193  and  _194
REMARK   81  A    between atoms: _197  and  _199
REMARK   82  A    between atoms: _199  and  _200
REMARK   83  A    between atoms: _199  and  _202
REMARK   84  A    between atoms: _205  and  _207
REMARK   85  A    between atoms: _207  and  _208
REMARK   86  A    between atoms: _207  and  _210
REMARK   87  A    between atoms: _210  and  _211
REMARK   88  A    between atoms: _217  and  _219
REMARK   89  A    between atoms: _219  and  _220
REMARK   90  A    between atoms: _219  and  _222
REMARK   91  A    between atoms: _222  and  _223
REMARK   92  A    between atoms: _226  and  _228
REMARK   93  A    between atoms: _228  and  _229
REMARK   94  A    between atoms: _228  and  _231
REMARK   95  A    between atoms: _231  and  _232
REMARK   96  A    between atoms: _237  and  _238
REMARK   97  A    between atoms: _240  and  _242
REMARK   98  A    between atoms: _242  and  _243
REMARK   99  A    between atoms: _242  and  _245
REMARK  100  A    between atoms: _245  and  _246
REMARK  101  A    between atoms: _248  and  _250
REMARK  102  A    between atoms: _250  and  _251
REMARK  103  A    between atoms: _250  and  _253
REMARK  104  A    between atoms: _253  and  _254
REMARK  105  A    between atoms: _260  and  _262
REMARK  106  A    between atoms: _262  and  _263
REMARK  107  A    between atoms: _265  and  _267
REMARK  108  A    between atoms: _267  and  _268
REMARK  109  A    between atoms: _267  and  _270
REMARK  110  A    between atoms: _270  and  _271
REMARK  111  A    between atoms: _274  and  _276
REMARK  112  A    between atoms: _276  and  _277
REMARK  113  A    between atoms: _276  and  _279
REMARK  114  A    between atoms: _279  and  _280
REMARK  115  A    between atoms: _283  and  _285
REMARK  116  A    between atoms: _285  and  _286
REMARK  117  A    between atoms: _285  and  _288
REMARK  118  A    between atoms: _288  and  _289
REMARK  119  A    between atoms: _292  and  _294
REMARK  120  A    between atoms: _294  and  _295
REMARK  121  A    between atoms: _297  and  _299
REMARK  122  A    between atoms: _299  and  _300
REMARK  123  A    between atoms: _299  and  _302
REMARK  124  A    between atoms: _302  and  _303
REMARK  125  A    between atoms: _313  and  _315
REMARK  126  A    between atoms: _315  and  _316
REMARK  127  A    between atoms: _315  and  _318
REMARK  128  A    between atoms: _318  and  _319
REMARK  129  A    between atoms: _322  and  _324
REMARK  130  A    between atoms: _324  and  _325
REMARK  131  A    between atoms: _324  and  _327
REMARK  132  A    between atoms: _327  and  _328
REMARK  133  A    between atoms: _331  and  _333
REMARK  134  A    between atoms: _333  and  _334
REMARK  135  A    between atoms: _333  and  _336
REMARK  136  A    between atoms: _336  and  _337
REMARK  137  A    between atoms: _339  and  _341
REMARK  138  A    between atoms: _341  and  _342
REMARK  139  A    between atoms: _341  and  _344
REMARK  140  A    between atoms: _344  and  _345
REMARK  141  A    between atoms: _348  and  _350
REMARK  142  A    between atoms: _350  and  _351
REMARK  143  A    between atoms: _350  and  _353
REMARK  144  A    between atoms: _353  and  _354
REMARK  145  A    between atoms: _357  and  _359
REMARK  146  A    between atoms: _359  and  _360
REMARK  147  A    between atoms: _359  and  _362
REMARK  148  A    between atoms: _362  and  _363
REMARK  149  A    between atoms: _368  and  _369
REMARK  150  A    between atoms: _371  and  _373
REMARK  151  A    between atoms: _373  and  _374
REMARK  152  A    between atoms: _373  and  _376
REMARK  153  A    between atoms: _376  and  _377
REMARK  154  A    between atoms: _387  and  _389
REMARK  155  A    between atoms: _389  and  _390
REMARK  156  A    between atoms: _389  and  _392
REMARK  157  A    between atoms: _392  and  _393
REMARK  158  A    between atoms: _398  and  _400
REMARK  159  A    between atoms: _400  and  _401
REMARK  160  A    between atoms: _400  and  _403
REMARK  161  A    between atoms: _403  and  _404
REMARK  162  A    between atoms: _407  and  _409
REMARK  163  A    between atoms: _409  and  _410
REMARK  164  A    between atoms: _409  and  _412
REMARK  165  A    between atoms: _415  and  _417
REMARK  166  A    between atoms: _417  and  _418
REMARK  167  A    between atoms: _417  and  _420
REMARK  168  A    between atoms: _420  and  _421
REMARK  169  A    between atoms: _424  and  _426
REMARK  170  A    between atoms: _426  and  _427
REMARK  171  A    between atoms: _426  and  _429
REMARK  172  A    between atoms: _429  and  _430
REMARK  173  A    between atoms: _432  and  _434
REMARK  174  A    between atoms: _434  and  _435
REMARK  175  A    between atoms: _437  and  _439
REMARK  176  A    between atoms: _439  and  _440
REMARK  177  A    between atoms: _439  and  _442
REMARK  178  A    between atoms: _442  and  _443
REMARK  179  A    between atoms: _446  and  _448
REMARK  180  A    between atoms: _448  and  _449
REMARK  181  A    between atoms: _448  and  _451
REMARK  182  A    between atoms: _451  and  _452
REMARK  183  A    between atoms: _454  and  _456
REMARK  184  A    between atoms: _456  and  _457
REMARK  185  A    between atoms: _460  and  _462
REMARK  186  A    between atoms: _462  and  _463
REMARK  187  A    between atoms: _462  and  _465
REMARK  188  A    between atoms: _465  and  _466
REMARK  189  A    between atoms: _469  and  _471
REMARK  190  A    between atoms: _471  and  _472
REMARK  191  A    between atoms: _471  and  _474
REMARK  192  A    between atoms: _474  and  _475
REMARK  193  A    between atoms: _478  and  _480
REMARK  194  A    between atoms: _480  and  _481
REMARK  195  A    between atoms: _480  and  _483
REMARK  196  A    between atoms: _487  and  _488
REMARK  197  A    between atoms: _493  and  _495
REMARK  198  A    between atoms: _495  and  _496
REMARK  199  A    between atoms: _495  and  _498
REMARK  200  A    between atoms: _498  and  _499
REMARK  201  A    between atoms: _504  and  _506
REMARK  202  A    between atoms: _506  and  _507
REMARK  203  A    between atoms: _506  and  _509
REMARK  204  A    between atoms: _509  and  _510
REMARK  205  A    between atoms: _513  and  _515
REMARK  206  A    between atoms: _515  and  _516
REMARK  207  A    between atoms: _515  and  _518
REMARK  208  A    between atoms: _518  and  _519
REMARK  209  A    between atoms: _522  and  _524
REMARK  210  A    between atoms: _524  and  _525
REMARK  211  A    between atoms: _524  and  _527
REMARK  212  A    between atoms: _527  and  _528
REMARK  213  A    between atoms: _531  and  _533
REMARK  214  A    between atoms: _533  and  _534
REMARK  215  A    between atoms: _533  and  _536
REMARK  216  A    between atoms: _536  and  _537
REMARK  217  A    between atoms: _543  and  _545
REMARK  218  A    between atoms: _545  and  _546
REMARK  219  A    between atoms: _545  and  _548
REMARK  220  A    between atoms: _548  and  _549
REMARK  221  A    between atoms: _552  and  _554
REMARK  222  A    between atoms: _554  and  _555
REMARK  223  A    between atoms: _554  and  _557
REMARK  224  A    between atoms: _557  and  _558
REMARK  225  A    between atoms: _564  and  _566
REMARK  226  A    between atoms: _566  and  _567
REMARK  227  A    between atoms: _566  and  _569
REMARK  228  A    between atoms: _569  and  _570
REMARK  229  A    between atoms: _573  and  _575
REMARK  230  A    between atoms: _575  and  _576
REMARK  231  A    between atoms: _575  and  _578
REMARK  232  A    between atoms: _578  and  _579
REMARK  233  A    between atoms: _582  and  _584
REMARK  234  A    between atoms: _584  and  _585
REMARK  235  A    between atoms: _587  and  _589
REMARK  236  A    between atoms: _589  and  _590
REMARK  237  A    between atoms: _589  and  _592
REMARK  238  A    between atoms: _592  and  _593
REMARK                            x       y       z     vdW  Elec       q    Type
REMARK                         _______ _______ _______ _____ _____    ______ ____
ROOT
ATOM      1  CG  TRP A   1      19.891  34.697  13.317  0.00  0.00    -0.002 A 
ATOM      2  CD1 TRP A   1      21.219  34.708  13.584  0.00  0.00    +0.068 A 
ATOM      3  NE1 TRP A   1      21.917  34.102  12.538  0.00  0.00    -0.352 N 
ATOM      4  HE1 TRP A   1      22.951  33.998  12.488  0.00  0.00    +0.166 HD
ATOM      5  CE2 TRP A   1      21.033  33.665  11.588  0.00  0.00    +0.056 A 
ATOM      6  CZ2 TRP A   1      21.263  32.991  10.361  0.00  0.00    +0.017 A 
ATOM      7  CH2 TRP A   1      20.167  32.676   9.589  0.00  0.00    +0.001 A 
ATOM      8  CZ3 TRP A   1      18.837  33.011  10.011  0.00  0.00    +0.000 A 
ATOM      9  CE3 TRP A   1      18.614  33.671  11.226  0.00  0.00    +0.001 A 
ATOM     10  CD2 TRP A   1      19.733  34.011  12.033  0.00  0.00    +0.013 A 
ENDROOT
BRANCH   1  11
ATOM     11  CB  TRP A   1      18.807  35.384  14.140  0.00  0.00    +0.053 C 
BRANCH  11  12
ATOM     12  CA  TRP A   1      18.106  34.469  15.142  0.00  0.00    +0.137 C 
BRANCH  12  13
ATOM     13  N   TRP A   1      18.989  33.982  16.221  0.00  0.00    -0.239 NA
ATOM     14  H   TRP A   1      19.522  33.097  16.098  0.00  0.00    +0.142 HD
ENDBRANCH  12  13
BRANCH  12  15
ATOM     15  C   TRP A   1      17.406  33.325  14.436  0.00  0.00    +0.224 C 
ATOM     16  O   TRP A   1      17.887  32.185  14.399  0.00  0.00    -0.287 OA
ENDBRANCH  12  15
ENDBRANCH  11  12
ENDBRANCH   1  11
TORSDOF 4
REMARK  Name = ../refined-set-2016/1lee/1lee_pocket.pdb
REMARK  238 active torsions:
REMARK  status: ('A' for Active; 'I' for Inactive)
REMARK    1  A    between atoms: _1  and  _3
REMARK    2  A    between atoms: _3  and  _4
REMARK    3  A    between atoms: _3  and  _6
REMARK    4  A    between atoms: _6  and  _7
REMARK    5  A    between atoms: _10  and  _12
REMARK    6  A    between atoms: _12  and  _13
REMARK    7  A    between atoms: _12  and  _15
REMARK    8  A    between atoms: _16  and  _17
REMARK    9  A    between atoms: _19  and  _21
REMARK   10  A    between atoms: _21  and  _22
REMARK   11  A    between atoms: _21  and  _24
REMARK   12  A    between atoms: _24  and  _25
REMARK   13  A    between atoms: _30  and  _31
REMARK   14  A    between atoms: _33  and  _35
REMARK   15  A    between atoms: _35  and  _36
REMARK   16  A    between atoms: _35  and  _38
REMARK   17  A    between atoms: _38  and  _39
REMARK   18  A    between atoms: _42  and  _44
REMARK   19  A    between atoms: _44  and  _45
REMARK   20  A    between atoms: _44  and  _47
REMARK   21  A    between atoms: _47  and  _48
REMARK   22  A    between atoms: _51  and  _53
REMARK   23  A    between atoms: _53  and  _54
REMARK   24  A    between atoms: _53  and  _56
REMARK   25  A    between atoms: _56  and  _57
REMARK   26  A    between atoms: _60  and  _62
REMARK   27  A    between atoms: _62  and  _63
REMARK   28  A    between atoms: _62  and  _65
REMARK   29  A    between atoms: _65  and  _66
REMARK   30  A    between atoms: _69  and  _71
REMARK   31  A    between atoms: _71  and  _72
REMARK   32  A    between atoms: _74  and  _76
REMARK   33  A    between atoms: _76  and  _77
REMARK   34  A    between atoms: _76  and  _79
REMARK   35  A    between atoms: _79  and  _80
REMARK   36  A    between atoms: _82  and  _84
REMARK   37  A    between atoms: _84  and  _85
REMARK   38  A    between atoms: _88  and  _90
REMARK   39  A    between atoms: _90  and  _91
REMARK   40  A    between atoms: _90  and  _93
REMARK   41  A    between atoms: _93  and  _94
REMARK   42  A    between atoms: _99  and  _101
REMARK   43  A    between atoms: _101  and  _102
REMARK   44  A    between atoms: _101  and  _104
REMARK   45  A    between atoms: _104  and  _105
REMARK   46  A    between atoms: _115  and  _117
REMARK   47  A    between atoms: _117  and  _118
REMARK   48  A    between atoms: _117  and  _120
REMARK   49  A    between atoms: _123  and  _125
REMARK   50  A    between atoms: _125  and  _126
REMARK   51  A    between atoms: _125  and  _128
REMARK   52  A    between atoms: _128  and  _129
REMARK   53  A    between atoms: _129  and  _130
REMARK   54  A    between atoms: _133  and  _135
REMARK   55  A    between atoms: _135  and  _136
REMARK   56  A    between atoms: _135  and  _138
REMARK   57  A    between atoms: _138  and  _139
REMARK   58  A    between atoms: _139  and  _140
REMARK   59  A    between atoms: _142  and  _144
REMARK   60  A    between atoms: _144  and  _145
REMARK   61  A    between atoms: _144  and  _147
REMARK   62  A    between atoms: _147  and  _148
REMARK   63  A    between atoms: _153  and  _155
REMARK   64  A    between atoms: _155  and  _156
REMARK   65  A    between atoms: _155  and  _158
REMARK   66  A    between atoms: _158  and  _159
REMARK   67  A    between atoms: _164  and  _165
REMARK   68  A    between atoms: _167  and  _169
REMARK   69  A    between atoms: _169  and  _170
REMARK   70  A    between atoms: _169  and  _172
REMARK   71  A    between atoms: _175  and  _177
REMARK   72  A    between atoms: _177  and  _178
REMARK   73  A    between atoms: _177  and  _180
REMARK   74  A    between atoms: _180  and  _181
REMARK   75  A    between atoms: _183  and  _185
REMARK   76  A    between atoms: _185  and  _186
REMARK   77  A    between atoms: _188  and  _190
REMARK   78  A    between atoms: _190  and  _191
REMARK   79  A    between atoms: _190  and  _193
REMARK   80  A    between atoms: _193  and  _194
REMARK   81  A    between atoms: _197  and  _199
REMARK   82  A    between atoms: _199  and  _200
REMARK   83  A    between atoms: _199  and  _202
REMARK   84  A    between atoms: _205  and  _207
REMARK   85  A    between atoms: _207  and  _208
REMARK   86  A    between atoms: _207  and  _210
REMARK   87  A    between atoms: _210  and  _211
REMARK   88  A    between atoms: _217  and  _219
REMARK   89  A    between atoms: _219  and  _220
REMARK   90  A    between atoms: _219  and  _222
REMARK   91  A    between atoms: _222  and  _223
REMARK   92  A    between atoms: _226  and  _228
REMARK   93  A    between atoms: _228  and  _229
REMARK   94  A    between atoms: _228  and  _231
REMARK   95  A    between atoms: _231  and  _232
REMARK   96  A    between atoms: _237  and  _238
REMARK   97  A    between atoms: _240  and  _242
REMARK   98  A    between atoms: _242  and  _243
REMARK   99  A    between atoms: _242  and  _245
REMARK  100  A    between atoms: _245  and  _246
REMARK  101  A    between atoms: _248  and  _250
REMARK  102  A    between atoms: _250  and  _251
REMARK  103  A    between atoms: _250  and  _253
REMARK  104  A    between atoms: _253  and  _254
REMARK  105  A    between atoms: _260  and  _262
REMARK  106  A    between atoms: _262  and  _263
REMARK  107  A    between atoms: _265  and  _267
REMARK  108  A    between atoms: _267  and  _268
REMARK  109  A    between atoms: _267  and  _270
REMARK  110  A    between atoms: _270  and  _271
REMARK  111  A    between atoms: _274  and  _276
REMARK  112  A    between atoms: _276  and  _277
REMARK  113  A    between atoms: _276  and  _279
REMARK  114  A    between atoms: _279  and  _280
REMARK  115  A    between atoms: _283  and  _285
REMARK  116  A    between atoms: _285  and  _286
REMARK  117  A    between atoms: _285  and  _288
REMARK  118  A    between atoms: _288  and  _289
REMARK  119  A    between atoms: _292  and  _294
REMARK  120  A    between atoms: _294  and  _295
REMARK  121  A    between atoms: _297  and  _299
REMARK  122  A    between atoms: _299  and  _300
REMARK  123  A    between atoms: _299  and  _302
REMARK  124  A    between atoms: _302  and  _303
REMARK  125  A    between atoms: _313  and  _315
REMARK  126  A    between atoms: _315  and  _316
REMARK  127  A    between atoms: _315  and  _318
REMARK  128  A    between atoms: _318  and  _319
REMARK  129  A    between atoms: _322  and  _324
REMARK  130  A    between atoms: _324  and  _325
REMARK  131  A    between atoms: _324  and  _327
REMARK  132  A    between atoms: _327  and  _328
REMARK  133  A    between atoms: _331  and  _333
REMARK  134  A    between atoms: _333  and  _334
REMARK  135  A    between atoms: _333  and  _336
REMARK  136  A    between atoms: _336  and  _337
REMARK  137  A    between atoms: _339  and  _341
REMARK  138  A    between atoms: _341  and  _342
REMARK  139  A    between atoms: _341  and  _344
REMARK  140  A    between atoms: _344  and  _345
REMARK  141  A    between atoms: _348  and  _350
REMARK  142  A    between atoms: _350  and  _351
REMARK  143  A    between atoms: _350  and  _353
REMARK  144  A    between atoms: _353  and  _354
REMARK  145  A    between atoms: _357  and  _359
REMARK  146  A    between atoms: _359  and  _360
REMARK  147  A    between atoms: _359  and  _362
REMARK  148  A    between atoms: _362  and  _363
REMARK  149  A    between atoms: _368  and  _369
REMARK  150  A    between atoms: _371  and  _373
REMARK  151  A    between atoms: _373  and  _374
REMARK  152  A    between atoms: _373  and  _376
REMARK  153  A    between atoms: _376  and  _377
REMARK  154  A    between atoms: _387  and  _389
REMARK  155  A    between atoms: _389  and  _390
REMARK  156  A    between atoms: _389  and  _392
REMARK  157  A    between atoms: _392  and  _393
REMARK  158  A    between atoms: _398  and  _400
REMARK  159  A    between atoms: _400  and  _401
REMARK  160  A    between atoms: _400  and  _403
REMARK  161  A    between atoms: _403  and  _404
REMARK  162  A    between atoms: _407  and  _409
REMARK  163  A    between atoms: _409  and  _410
REMARK  164  A    between atoms: _409  and  _412
REMARK  165  A    between atoms: _415  and  _417
REMARK  166  A    between atoms: _417  and  _418
REMARK  167  A    between atoms: _417  and  _420
REMARK  168  A    between atoms: _420  and  _421
REMARK  169  A    between atoms: _424  and  _426
REMARK  170  A    between atoms: _426  and  _427
REMARK  171  A    between atoms: _426  and  _429
REMARK  172  A    between atoms: _429  and  _430
REMARK  173  A    between atoms: _432  and  _434
REMARK  174  A    between atoms: _434  and  _435
REMARK  175  A    between atoms: _437  and  _439
REMARK  176  A    between atoms: _439  and  _440
REMARK  177  A    between atoms: _439  and  _442
REMARK  178  A    between atoms: _442  and  _443
REMARK  179  A    between atoms: _446  and  _448
REMARK  180  A    between atoms: _448  and  _449
REMARK  181  A    between atoms: _448  and  _451
REMARK  182  A    between atoms: _451  and  _452
REMARK  183  A    between atoms: _454  and  _456
REMARK  184  A    between atoms: _456  and  _457
REMARK  185  A    between atoms: _460  and  _462
REMARK  186  A    between atoms: _462  and  _463
REMARK  187  A    between atoms: _462  and  _465
REMARK  188  A    between atoms: _465  and  _466
REMARK  189  A    between atoms: _469  and  _471
REMARK  190  A    between atoms: _471  and  _472
REMARK  191  A    between atoms: _471  and  _474
REMARK  192  A    between atoms: _474  and  _475
REMARK  193  A    between atoms: _478  and  _480
REMARK  194  A    between atoms: _480  and  _481
REMARK  195  A    between atoms: _480  and  _483
REMARK  196  A    between atoms: _487  and  _488
REMARK  197  A    between atoms: _493  and  _495
REMARK  198  A    between atoms: _495  and  _496
REMARK  199  A    between atoms: _495  and  _498
REMARK  200  A    between atoms: _498  and  _499
REMARK  201  A    between atoms: _504  and  _506
REMARK  202  A    between atoms: _506  and  _507
REMARK  203  A    between atoms: _506  and  _509
REMARK  204  A    between atoms: _509  and  _510
REMARK  205  A    between atoms: _513  and  _515
REMARK  206  A    between atoms: _515  and  _516
REMARK  207  A    between atoms: _515  and  _518
REMARK  208  A    between atoms: _518  and  _519
REMARK  209  A    between atoms: _522  and  _524
REMARK  210  A    between atoms: _524  and  _525
REMARK  211  A    between atoms: _524  and  _527
REMARK  212  A    between atoms: _527  and  _528
REMARK  213  A    between atoms: _531  and  _533
REMARK  214  A    between atoms: _533  and  _534
REMARK  215  A    between atoms: _533  and  _536
REMARK  216  A    between atoms: _536  and  _537
REMARK  217  A    between atoms: _543  and  _545
REMARK  218  A    between atoms: _545  and  _546
REMARK  219  A    between atoms: _545  and  _548
REMARK  220  A    between atoms: _548  and  _549
REMARK  221  A    between atoms: _552  and  _554
REMARK  222  A    between atoms: _554  and  _555
REMARK  223  A    between atoms: _554  and  _557
REMARK  224  A    between atoms: _557  and  _558
REMARK  225  A    between atoms: _564  and  _566
REMARK  226  A    between atoms: _566  and  _567
REMARK  227  A    between atoms: _566  and  _569
REMARK  228  A    between atoms: _569  and  _570
REMARK  229  A    between atoms: _573  and  _575
REMARK  230  A    between atoms: _575  and  _576
REMARK  231  A    between atoms: _575  and  _578
REMARK  232  A    between atoms: _578  and  _579
REMARK  233  A    between atoms: _582  and  _584
REMARK  234  A    between atoms: _584  and  _585
REMARK  235  A    between atoms: _587  and  _589
REMARK  236  A    between atoms: _589  and  _590
REMARK  237  A    between atoms: _589  and  _592
REMARK  238  A    between atoms: _592  and  _593
REMARK                            x       y       z     vdW  Elec       q    Type
REMARK                         _______ _______ _______ _____ _____    ______ ____
ROOT
ATOM      1  CA  TYR A   5      29.145  37.416  10.308  0.00  0.00    +0.153 C 
ENDROOT
BRANCH   1   2
ATOM      2  C   TYR A   5      30.261  37.507   9.294  0.00  0.00    +0.241 C 
ATOM      3  N   VAL A   6      31.378  36.815   9.514  0.00  0.00    -0.297 N 
ATOM      4  H   VAL A   6      31.497  36.255  10.382  0.00  0.00    +0.150 HD
ATOM      5  O   TYR A   5      30.099  38.178   8.282  0.00  0.00    -0.273 OA
BRANCH   3   6
ATOM      6  CA  VAL A   6      32.428  36.864   8.507  0.00  0.00    +0.149 C 
BRANCH   6   7
ATOM      7  C   VAL A   6      31.883  36.070   7.277  0.00  0.00    +0.241 C 
ATOM      8  N   SER A   7      30.996  35.111   7.562  0.00  0.00    -0.295 N 
ATOM      9  H   SER A   7      30.759  34.976   8.566  0.00  0.00    +0.150 HD
ATOM     10  O   VAL A   6      32.227  36.348   6.123  0.00  0.00    -0.273 OA
BRANCH   8  11
ATOM     11  CA  SER A   7      30.322  34.228   6.599  0.00  0.00    +0.178 C 
BRANCH  11  12
ATOM     12  C   SER A   7      29.189  34.843   5.738  0.00  0.00    +0.243 C 
ATOM     13  N   GLY A   8      28.686  36.020   6.100  0.00  0.00    -0.295 N 
ATOM     14  H   GLY A   8      29.096  36.509   6.921  0.00  0.00    +0.150 HD
ATOM     15  O   SER A   7      28.766  34.203   4.784  0.00  0.00    -0.273 OA
BRANCH  13  16
ATOM     16  CA  GLY A   8      27.581  36.648   5.387  0.00  0.00    +0.176 C 
BRANCH  16  17
ATOM     17  C   GLY A   8      26.668  37.493   6.274  0.00  0.00    +0.243 C 
ATOM     18  O   GLY A   8      26.874  37.563   7.485  0.00  0.00    -0.273 OA
ATOM     19  N   THR A   9      25.550  37.964   5.708  0.00  0.00    -0.295 N 
ATOM     20  H   THR A   9      25.317  37.680   4.735  0.00  0.00    +0.150 HD
BRANCH  19  21
ATOM     21  CA  THR A   9      24.657  38.857   6.412  0.00  0.00    +0.176 C 
BRANCH  21  22
ATOM     22  C   THR A   9      23.187  38.530   6.380  0.00  0.00    +0.243 C 
ATOM     23  N   VAL A  10      22.548  38.551   7.541  0.00  0.00    -0.298 N 
ATOM     24  H   VAL A  10      23.079  38.704   8.422  0.00  0.00    +0.150 HD
ATOM     25  O   THR A   9      22.672  38.091   5.368  0.00  0.00    -0.273 OA
BRANCH  23  26
ATOM     26  CA  VAL A  10      21.098  38.360   7.587  0.00  0.00    +0.137 C 
BRANCH  26  27
ATOM     27  CB  VAL A  10      20.630  37.119   8.289  0.00  0.00    +0.026 C 
ATOM     28  CG2 VAL A  10      21.297  36.996   9.675  0.00  0.00    +0.002 C 
ATOM     29  CG1 VAL A  10      20.887  35.930   7.392  0.00  0.00    +0.002 C 
ENDBRANCH  26  27
BRANCH  26  30
ATOM     30  C   VAL A  10      20.561  39.600   8.261  0.00  0.00    +0.227 C 
ATOM     31  O   VAL A  10      21.234  40.232   9.069  0.00  0.00    -0.286 OA
ENDBRANCH  26  30
ENDBRANCH  23  26
ENDBRANCH  21  22
BRANCH  21  32
ATOM     32  CB  THR A   9      24.817  40.276   5.845  0.00  0.00    +0.137 C 
ATOM     33  CG2 THR A   9      23.887  41.267   6.492  0.00  0.00    +0.034 C 
BRANCH  32  34
ATOM     34  OG1 THR A   9      26.151  40.728   6.060  0.00  0.00    -0.382 OA
ATOM     35  HG1 THR A   9      26.251  41.642   5.694  0.00  0.00    +0.210 HD
ENDBRANCH  32  34
ENDBRANCH  21  32
ENDBRANCH  19  21
ENDBRANCH  16  17
ENDBRANCH  13  16
ENDBRANCH  11  12
BRANCH  11  36
ATOM     36  CB  SER A   7      29.714  33.058   7.355  0.00  0.00    +0.166 C 
BRANCH  36  37
ATOM     37  OG  SER A   7      30.657  32.076   7.659  0.00  0.00    -0.380 OA
ATOM     38  H   SER A   7      31.370  32.468   8.222  0.00  0.00    +0.211 HD
ENDBRANCH  36  37
ENDBRANCH  11  36
ENDBRANCH   8  11
ENDBRANCH   6   7
BRANCH   6  39
ATOM     39  CB  VAL A   6      33.779  36.272   9.013  0.00  0.00    +0.027 C 
ATOM     40  CG2 VAL A   6      34.298  37.067  10.196  0.00  0.00    +0.002 C 
ATOM     41  CG1 VAL A   6      33.668  34.792   9.294  0.00  0.00    +0.002 C 
ENDBRANCH   6  39
ENDBRANCH   3   6
ENDBRANCH   1   2
BRANCH   1  44
ATOM     42  C   ASN A   4      28.193  39.672  10.385  0.00  0.00    +0.241 C 
ATOM     43  O   ASN A   4      28.996  40.085  11.210  0.00  0.00    -0.273 OA
ATOM     44  N   TYR A   5      28.168  38.415   9.950  0.00  0.00    -0.297 N 
ATOM     45  H   TYR A   5      27.396  38.135   9.312  0.00  0.00    +0.150 HD
BRANCH  42  46
ATOM     46  CA  ASN A   4      27.121  40.618   9.839  0.00  0.00    +0.158 C 
BRANCH  46  48
ATOM     47  C   MET A   3      24.737  40.295  10.503  0.00  0.00    +0.241 C 
ATOM     48  N   ASN A   4      25.927  40.871  10.685  0.00  0.00    -0.297 N 
ATOM     49  H   ASN A   4      26.025  41.543  11.473  0.00  0.00    +0.150 HD
ATOM     50  O   MET A   3      24.545  39.410   9.667  0.00  0.00    -0.273 OA
BRANCH  47  51
ATOM     51  CA  MET A   3      23.591  40.704  11.488  0.00  0.00    +0.149 C 
BRANCH  51  54
ATOM     52  C   GLU A   2      22.642  42.872  11.070  0.00  0.00    +0.241 C 
ATOM     53  O   GLU A   2      23.398  43.373  11.882  0.00  0.00    -0.273 OA
ATOM     54  N   MET A   3      22.623  41.580  10.855  0.00  0.00    -0.297 N 
ATOM     55  H   MET A   3      21.904  41.176  10.221  0.00  0.00    +0.150 HD
BRANCH  52  56
ATOM     56  CA  GLU A   2      21.580  43.698  10.384  0.00  0.00    +0.149 C 
BRANCH  56  58
ATOM     57  C   VAL A   1      19.637  44.054  11.730  0.00  0.00    +0.238 C 
ATOM     58  N   GLU A   2      20.913  44.250  11.520  0.00  0.00    -0.297 N 
ATOM     59  H   GLU A   2      21.456  44.822  12.198  0.00  0.00    +0.150 HD
ATOM     60  O   VAL A   1      18.989  43.254  11.082  0.00  0.00    -0.274 OA
BRANCH  57  61
ATOM     61  CA  VAL A   1      19.103  44.642  13.017  0.00  0.00    +0.145 C 
BRANCH  61  62
ATOM     62  CB  VAL A   1      19.030  43.436  14.006  0.00  0.00    +0.025 C 
ATOM     63  CG2 VAL A   1      18.412  43.866  15.298  0.00  0.00    +0.002 C 
ATOM     64  CG1 VAL A   1      20.425  42.882  14.278  0.00  0.00    +0.002 C 
ENDBRANCH  61  62
BRANCH  61  65
ATOM     65  N   VAL A   1      17.786  45.206  12.809  0.00  0.00    -0.238 NA
ATOM     66  H   VAL A   1      17.085  44.641  12.288  0.00  0.00    +0.142 HD
ENDBRANCH  61  65
ENDBRANCH  57  61
ENDBRANCH  56  58
BRANCH  56  67
ATOM     67  CB  GLU A   2      22.189  44.839   9.581  0.00  0.00    +0.041 C 
BRANCH  67  68
ATOM     68  CG  GLU A   2      23.242  44.411   8.573  0.00  0.00    +0.116 C 
BRANCH  68  69
ATOM     69  CD  GLU A   2      23.887  45.606   7.938  0.00  0.00    +0.365 C 
ATOM     70  OE2 GLU A   2      24.968  46.053   8.399  0.00  0.00    -0.246 OA
ATOM     71  OE1 GLU A   2      23.271  46.127   6.992  0.00  0.00    -0.246 OA
ENDBRANCH  68  69
ENDBRANCH  67  68
ENDBRANCH  56  67
ENDBRANCH  52  56
ENDBRANCH  51  54
BRANCH  51  72
ATOM     72  CB  MET A   3      22.832  39.478  12.033  0.00  0.00    +0.041 C 
BRANCH  72  73
ATOM     73  CG  MET A   3      23.668  38.489  12.806  0.00  0.00    +0.060 C 
BRANCH  73  74
ATOM     74  SD  MET A   3      24.051  38.982  14.508  0.00  0.00    -0.139 S 
ATOM     75  CE  MET A   3      22.394  39.023  15.180  0.00  0.00    +0.069 C 
ENDBRANCH  73  74
ENDBRANCH  72  73
ENDBRANCH  51  72
ENDBRANCH  47  51
ENDBRANCH  46  48
BRANCH  46  76
ATOM     76  CB  ASN A   4      27.825  41.939   9.506  0.00  0.00    +0.114 C 
BRANCH  76  77
ATOM     77  CG  ASN A   4      26.879  42.974   8.946  0.00  0.00    +0.222 C 
ATOM     78  OD1 ASN A   4      26.842  44.116   9.401  0.00  0.00    -0.275 OA
ATOM     79  ND2 ASN A   4      26.083  42.574   7.952  0.00  0.00    -0.329 N 
ATOM     80 HD21 ASN A   4      26.146  41.599   7.596  0.00  0.00    +0.145 HD
ATOM     81 HD22 ASN A   4      25.400  43.237   7.534  0.00  0.00    +0.145 HD
ENDBRANCH  76  77
ENDBRANCH  46  76
ENDBRANCH  42  46
ENDBRANCH   1  44
BRANCH   1  82
ATOM     82  CB  TYR A   5      28.541  36.038  10.193  0.00  0.00    +0.055 C 
BRANCH  82  83
ATOM     83  CG  TYR A   5      27.415  35.774  11.155  0.00  0.00    -0.020 A 
ATOM     84  CD2 TYR A   5      27.674  35.320  12.480  0.00  0.00    -0.001 A 
ATOM     85  CE2 TYR A   5      26.626  35.012  13.354  0.00  0.00    +0.036 A 
ATOM     86  CZ  TYR A   5      25.310  35.155  12.885  0.00  0.00    +0.134 A 
ATOM     87  CE1 TYR A   5      25.054  35.605  11.584  0.00  0.00    +0.036 A 
ATOM     88  CD1 TYR A   5      26.093  35.910  10.742  0.00  0.00    -0.001 A 
BRANCH  86  89
ATOM     89  OH  TYR A   5      24.232  34.812  13.679  0.00  0.00    -0.506 OA
ATOM     90  HH  TYR A   5      24.244  35.359  14.504  0.00  0.00    +0.292 HD
ENDBRANCH  86  89
ENDBRANCH  82  83
ENDBRANCH   1  82
TORSDOF 38
REMARK  Name = ../refined-set-2016/1lee/1lee_pocket.pdb
REMARK  238 active torsions:
REMARK  status: ('A' for Active; 'I' for Inactive)
REMARK    1  A    between atoms: _1  and  _3
REMARK    2  A    between atoms: _3  and  _4
REMARK    3  A    between atoms: _3  and  _6
REMARK    4  A    between atoms: _6  and  _7
REMARK    5  A    between atoms: _10  and  _12
REMARK    6  A    between atoms: _12  and  _13
REMARK    7  A    between atoms: _12  and  _15
REMARK    8  A    between atoms: _16  and  _17
REMARK    9  A    between atoms: _19  and  _21
REMARK   10  A    between atoms: _21  and  _22
REMARK   11  A    between atoms: _21  and  _24
REMARK   12  A    between atoms: _24  and  _25
REMARK   13  A    between atoms: _30  and  _31
REMARK   14  A    between atoms: _33  and  _35
REMARK   15  A    between atoms: _35  and  _36
REMARK   16  A    between atoms: _35  and  _38
REMARK   17  A    between atoms: _38  and  _39
REMARK   18  A    between atoms: _42  and  _44
REMARK   19  A    between atoms: _44  and  _45
REMARK   20  A    between atoms: _44  and  _47
REMARK   21  A    between atoms: _47  and  _48
REMARK   22  A    between atoms: _51  and  _53
REMARK   23  A    between atoms: _53  and  _54
REMARK   24  A    between atoms: _53  and  _56
REMARK   25  A    between atoms: _56  and  _57
REMARK   26  A    between atoms: _60  and  _62
REMARK   27  A    between atoms: _62  and  _63
REMARK   28  A    between atoms: _62  and  _65
REMARK   29  A    between atoms: _65  and  _66
REMARK   30  A    between atoms: _69  and  _71
REMARK   31  A    between atoms: _71  and  _72
REMARK   32  A    between atoms: _74  and  _76
REMARK   33  A    between atoms: _76  and  _77
REMARK   34  A    between atoms: _76  and  _79
REMARK   35  A    between atoms: _79  and  _80
REMARK   36  A    between atoms: _82  and  _84
REMARK   37  A    between atoms: _84  and  _85
REMARK   38  A    between atoms: _88  and  _90
REMARK   39  A    between atoms: _90  and  _91
REMARK   40  A    between atoms: _90  and  _93
REMARK   41  A    between atoms: _93  and  _94
REMARK   42  A    between atoms: _99  and  _101
REMARK   43  A    between atoms: _101  and  _102
REMARK   44  A    between atoms: _101  and  _104
REMARK   45  A    between atoms: _104  and  _105
REMARK   46  A    between atoms: _115  and  _117
REMARK   47  A    between atoms: _117  and  _118
REMARK   48  A    between atoms: _117  and  _120
REMARK   49  A    between atoms: _123  and  _125
REMARK   50  A    between atoms: _125  and  _126
REMARK   51  A    between atoms: _125  and  _128
REMARK   52  A    between atoms: _128  and  _129
REMARK   53  A    between atoms: _129  and  _130
REMARK   54  A    between atoms: _133  and  _135
REMARK   55  A    between atoms: _135  and  _136
REMARK   56  A    between atoms: _135  and  _138
REMARK   57  A    between atoms: _138  and  _139
REMARK   58  A    between atoms: _139  and  _140
REMARK   59  A    between atoms: _142  and  _144
REMARK   60  A    between atoms: _144  and  _145
REMARK   61  A    between atoms: _144  and  _147
REMARK   62  A    between atoms: _147  and  _148
REMARK   63  A    between atoms: _153  and  _155
REMARK   64  A    between atoms: _155  and  _156
REMARK   65  A    between atoms: _155  and  _158
REMARK   66  A    between atoms: _158  and  _159
REMARK   67  A    between atoms: _164  and  _165
REMARK   68  A    between atoms: _167  and  _169
REMARK   69  A    between atoms: _169  and  _170
REMARK   70  A    between atoms: _169  and  _172
REMARK   71  A    between atoms: _175  and  _177
REMARK   72  A    between atoms: _177  and  _178
REMARK   73  A    between atoms: _177  and  _180
REMARK   74  A    between atoms: _180  and  _181
REMARK   75  A    between atoms: _183  and  _185
REMARK   76  A    between atoms: _185  and  _186
REMARK   77  A    between atoms: _188  and  _190
REMARK   78  A    between atoms: _190  and  _191
REMARK   79  A    between atoms: _190  and  _193
REMARK   80  A    between atoms: _193  and  _194
REMARK   81  A    between atoms: _197  and  _199
REMARK   82  A    between atoms: _199  and  _200
REMARK   83  A    between atoms: _199  and  _202
REMARK   84  A    between atoms: _205  and  _207
REMARK   85  A    between atoms: _207  and  _208
REMARK   86  A    between atoms: _207  and  _210
REMARK   87  A    between atoms: _210  and  _211
REMARK   88  A    between atoms: _217  and  _219
REMARK   89  A    between atoms: _219  and  _220
REMARK   90  A    between atoms: _219  and  _222
REMARK   91  A    between atoms: _222  and  _223
REMARK   92  A    between atoms: _226  and  _228
REMARK   93  A    between atoms: _228  and  _229
REMARK   94  A    between atoms: _228  and  _231
REMARK   95  A    between atoms: _231  and  _232
REMARK   96  A    between atoms: _237  and  _238
REMARK   97  A    between atoms: _240  and  _242
REMARK   98  A    between atoms: _242  and  _243
REMARK   99  A    between atoms: _242  and  _245
REMARK  100  A    between atoms: _245  and  _246
REMARK  101  A    between atoms: _248  and  _250
REMARK  102  A    between atoms: _250  and  _251
REMARK  103  A    between atoms: _250  and  _253
REMARK  104  A    between atoms: _253  and  _254
REMARK  105  A    between atoms: _260  and  _262
REMARK  106  A    between atoms: _262  and  _263
REMARK  107  A    between atoms: _265  and  _267
REMARK  108  A    between atoms: _267  and  _268
REMARK  109  A    between atoms: _267  and  _270
REMARK  110  A    between atoms: _270  and  _271
REMARK  111  A    between atoms: _274  and  _276
REMARK  112  A    between atoms: _276  and  _277
REMARK  113  A    between atoms: _276  and  _279
REMARK  114  A    between atoms: _279  and  _280
REMARK  115  A    between atoms: _283  and  _285
REMARK  116  A    between atoms: _285  and  _286
REMARK  117  A    between atoms: _285  and  _288
REMARK  118  A    between atoms: _288  and  _289
REMARK  119  A    between atoms: _292  and  _294
REMARK  120  A    between atoms: _294  and  _295
REMARK  121  A    between atoms: _297  and  _299
REMARK  122  A    between atoms: _299  and  _300
REMARK  123  A    between atoms: _299  and  _302
REMARK  124  A    between atoms: _302  and  _303
REMARK  125  A    between atoms: _313  and  _315
REMARK  126  A    between atoms: _315  and  _316
REMARK  127  A    between atoms: _315  and  _318
REMARK  128  A    between atoms: _318  and  _319
REMARK  129  A    between atoms: _322  and  _324
REMARK  130  A    between atoms: _324  and  _325
REMARK  131  A    between atoms: _324  and  _327
REMARK  132  A    between atoms: _327  and  _328
REMARK  133  A    between atoms: _331  and  _333
REMARK  134  A    between atoms: _333  and  _334
REMARK  135  A    between atoms: _333  and  _336
REMARK  136  A    between atoms: _336  and  _337
REMARK  137  A    between atoms: _339  and  _341
REMARK  138  A    between atoms: _341  and  _342
REMARK  139  A    between atoms: _341  and  _344
REMARK  140  A    between atoms: _344  and  _345
REMARK  141  A    between atoms: _348  and  _350
REMARK  142  A    between atoms: _350  and  _351
REMARK  143  A    between atoms: _350  and  _353
REMARK  144  A    between atoms: _353  and  _354
REMARK  145  A    between atoms: _357  and  _359
REMARK  146  A    between atoms: _359  and  _360
REMARK  147  A    between atoms: _359  and  _362
REMARK  148  A    between atoms: _362  and  _363
REMARK  149  A    between atoms: _368  and  _369
REMARK  150  A    between atoms: _371  and  _373
REMARK  151  A    between atoms: _373  and  _374
REMARK  152  A    between atoms: _373  and  _376
REMARK  153  A    between atoms: _376  and  _377
REMARK  154  A    between atoms: _387  and  _389
REMARK  155  A    between atoms: _389  and  _390
REMARK  156  A    between atoms: _389  and  _392
REMARK  157  A    between atoms: _392  and  _393
REMARK  158  A    between atoms: _398  and  _400
REMARK  159  A    between atoms: _400  and  _401
REMARK  160  A    between atoms: _400  and  _403
REMARK  161  A    between atoms: _403  and  _404
REMARK  162  A    between atoms: _407  and  _409
REMARK  163  A    between atoms: _409  and  _410
REMARK  164  A    between atoms: _409  and  _412
REMARK  165  A    between atoms: _415  and  _417
REMARK  166  A    between atoms: _417  and  _418
REMARK  167  A    between atoms: _417  and  _420
REMARK  168  A    between atoms: _420  and  _421
REMARK  169  A    between atoms: _424  and  _426
REMARK  170  A    between atoms: _426  and  _427
REMARK  171  A    between atoms: _426  and  _429
REMARK  172  A    between atoms: _429  and  _430
REMARK  173  A    between atoms: _432  and  _434
REMARK  174  A    between atoms: _434  and  _435
REMARK  175  A    between atoms: _437  and  _439
REMARK  176  A    between atoms: _439  and  _440
REMARK  177  A    between atoms: _439  and  _442
REMARK  178  A    between atoms: _442  and  _443
REMARK  179  A    between atoms: _446  and  _448
REMARK  180  A    between atoms: _448  and  _449
REMARK  181  A    between atoms: _448  and  _451
REMARK  182  A    between atoms: _451  and  _452
REMARK  183  A    between atoms: _454  and  _456
REMARK  184  A    between atoms: _456  and  _457
REMARK  185  A    between atoms: _460  and  _462
REMARK  186  A    between atoms: _462  and  _463
REMARK  187  A    between atoms: _462  and  _465
REMARK  188  A    between atoms: _465  and  _466
REMARK  189  A    between atoms: _469  and  _471
REMARK  190  A    between atoms: _471  and  _472
REMARK  191  A    between atoms: _471  and  _474
REMARK  192  A    between atoms: _474  and  _475
REMARK  193  A    between atoms: _478  and  _480
REMARK  194  A    between atoms: _480  and  _481
REMARK  195  A    between atoms: _480  and  _483
REMARK  196  A    between atoms: _487  and  _488
REMARK  197  A    between atoms: _493  and  _495
REMARK  198  A    between atoms: _495  and  _496
REMARK  199  A    between atoms: _495  and  _498
REMARK  200  A    between atoms: _498  and  _499
REMARK  201  A    between atoms: _504  and  _506
REMARK  202  A    between atoms: _506  and  _507
REMARK  203  A    between atoms: _506  and  _509
REMARK  204  A    between atoms: _509  and  _510
REMARK  205  A    between atoms: _513  and  _515
REMARK  206  A    between atoms: _515  and  _516
REMARK  207  A    between atoms: _515  and  _518
REMARK  208  A    between atoms: _518  and  _519
REMARK  209  A    between atoms: _522  and  _524
REMARK  210  A    between atoms: _524  and  _525
REMARK  211  A    between atoms: _524  and  _527
REMARK  212  A    between atoms: _527  and  _528
REMARK  213  A    between atoms: _531  and  _533
REMARK  214  A    between atoms: _533  and  _534
REMARK  215  A    between atoms: _533  and  _536
REMARK  216  A    between atoms: _536  and  _537
REMARK  217  A    between atoms: _543  and  _545
REMARK  218  A    between atoms: _545  and  _546
REMARK  219  A    between atoms: _545  and  _548
REMARK  220  A    between atoms: _548  and  _549
REMARK  221  A    between atoms: _552  and  _554
REMARK  222  A    between atoms: _554  and  _555
REMARK  223  A    between atoms: _554  and  _557
REMARK  224  A    between atoms: _557  and  _558
REMARK  225  A    between atoms: _564  and  _566
REMARK  226  A    between atoms: _566  and  _567
REMARK  227  A    between atoms: _566  and  _569
REMARK  228  A    between atoms: _569  and  _570
REMARK  229  A    between atoms: _573  and  _575
REMARK  230  A    between atoms: _575  and  _576
REMARK  231  A    between atoms: _575  and  _578
REMARK  232  A    between atoms: _578  and  _579
REMARK  233  A    between atoms: _582  and  _584
REMARK  234  A    between atoms: _584  and  _585
REMARK  235  A    between atoms: _587  and  _589
REMARK  236  A    between atoms: _589  and  _590
REMARK  237  A    between atoms: _589  and  _592
REMARK  238  A    between atoms: _592  and  _593
REMARK                            x       y       z     vdW  Elec       q    Type
REMARK                         _______ _______ _______ _____ _____    ______ ____
ROOT
ATOM      1  CB  PHE A   1      23.113  34.744   4.568  0.00  0.00    +0.051 C 
ENDROOT
BRANCH   1   2
ATOM      2  CG  PHE A   1      23.776  33.729   5.437  0.00  0.00    -0.020 A 
ATOM      3  CD2 PHE A   1      23.021  32.918   6.232  0.00  0.00    -0.004 A 
ATOM      4  CE2 PHE A   1      23.620  31.985   7.100  0.00  0.00    -0.000 A 
ATOM      5  CZ  PHE A   1      24.996  31.878   7.150  0.00  0.00    -0.000 A 
ATOM      6  CE1 PHE A   1      25.765  32.693   6.344  0.00  0.00    -0.000 A 
ATOM      7  CD1 PHE A   1      25.154  33.614   5.497  0.00  0.00    -0.004 A 
ENDBRANCH   1   2
BRANCH   1   8
ATOM      8  CA  PHE A   1      23.849  35.053   3.260  0.00  0.00    +0.137 C 
BRANCH   8   9
ATOM      9  N   PHE A   1      23.363  36.348   2.738  0.00  0.00    -0.239 NA
ATOM     10  H   PHE A   1      22.381  36.391   2.398  0.00  0.00    +0.142 HD
ENDBRANCH   8   9
BRANCH   8  11
ATOM     11  C   PHE A   1      23.652  33.927   2.250  0.00  0.00    +0.224 C 
ATOM     12  O   PHE A   1      23.709  32.739   2.588  0.00  0.00    -0.287 OA
ENDBRANCH   8  11
ENDBRANCH   1   8
TORSDOF 4
REMARK  Name = ../refined-set-2016/1lee/1lee_pocket.pdb
REMARK  238 active torsions:
REMARK  status: ('A' for Active; 'I' for Inactive)
REMARK    1  A    between atoms: _1  and  _3
REMARK    2  A    between atoms: _3  and  _4
REMARK    3  A    between atoms: _3  and  _6
REMARK    4  A    between atoms: _6  and  _7
REMARK    5  A    between atoms: _10  and  _12
REMARK    6  A    between atoms: _12  and  _13
REMARK    7  A    between atoms: _12  and  _15
REMARK    8  A    between atoms: _16  and  _17
REMARK    9  A    between atoms: _19  and  _21
REMARK   10  A    between atoms: _21  and  _22
REMARK   11  A    between atoms: _21  and  _24
REMARK   12  A    between atoms: _24  and  _25
REMARK   13  A    between atoms: _30  and  _31
REMARK   14  A    between atoms: _33  and  _35
REMARK   15  A    between atoms: _35  and  _36
REMARK   16  A    between atoms: _35  and  _38
REMARK   17  A    between atoms: _38  and  _39
REMARK   18  A    between atoms: _42  and  _44
REMARK   19  A    between atoms: _44  and  _45
REMARK   20  A    between atoms: _44  and  _47
REMARK   21  A    between atoms: _47  and  _48
REMARK   22  A    between atoms: _51  and  _53
REMARK   23  A    between atoms: _53  and  _54
REMARK   24  A    between atoms: _53  and  _56
REMARK   25  A    between atoms: _56  and  _57
REMARK   26  A    between atoms: _60  and  _62
REMARK   27  A    between atoms: _62  and  _63
REMARK   28  A    between atoms: _62  and  _65
REMARK   29  A    between atoms: _65  and  _66
REMARK   30  A    between atoms: _69  and  _71
REMARK   31  A    between atoms: _71  and  _72
REMARK   32  A    between atoms: _74  and  _76
REMARK   33  A    between atoms: _76  and  _77
REMARK   34  A    between atoms: _76  and  _79
REMARK   35  A    between atoms: _79  and  _80
REMARK   36  A    between atoms: _82  and  _84
REMARK   37  A    between atoms: _84  and  _85
REMARK   38  A    between atoms: _88  and  _90
REMARK   39  A    between atoms: _90  and  _91
REMARK   40  A    between atoms: _90  and  _93
REMARK   41  A    between atoms: _93  and  _94
REMARK   42  A    between atoms: _99  and  _101
REMARK   43  A    between atoms: _101  and  _102
REMARK   44  A    between atoms: _101  and  _104
REMARK   45  A    between atoms: _104  and  _105
REMARK   46  A    between atoms: _115  and  _117
REMARK   47  A    between atoms: _117  and  _118
REMARK   48  A    between atoms: _117  and  _120
REMARK   49  A    between atoms: _123  and  _125
REMARK   50  A    between atoms: _125  and  _126
REMARK   51  A    between atoms: _125  and  _128
REMARK   52  A    between atoms: _128  and  _129
REMARK   53  A    between atoms: _129  and  _130
REMARK   54  A    between atoms: _133  and  _135
REMARK   55  A    between atoms: _135  and  _136
REMARK   56  A    between atoms: _135  and  _138
REMARK   57  A    between atoms: _138  and  _139
REMARK   58  A    between atoms: _139  and  _140
REMARK   59  A    between atoms: _142  and  _144
REMARK   60  A    between atoms: _144  and  _145
REMARK   61  A    between atoms: _144  and  _147
REMARK   62  A    between atoms: _147  and  _148
REMARK   63  A    between atoms: _153  and  _155
REMARK   64  A    between atoms: _155  and  _156
REMARK   65  A    between atoms: _155  and  _158
REMARK   66  A    between atoms: _158  and  _159
REMARK   67  A    between atoms: _164  and  _165
REMARK   68  A    between atoms: _167  and  _169
REMARK   69  A    between atoms: _169  and  _170
REMARK   70  A    between atoms: _169  and  _172
REMARK   71  A    between atoms: _175  and  _177
REMARK   72  A    between atoms: _177  and  _178
REMARK   73  A    between atoms: _177  and  _180
REMARK   74  A    between atoms: _180  and  _181
REMARK   75  A    between atoms: _183  and  _185
REMARK   76  A    between atoms: _185  and  _186
REMARK   77  A    between atoms: _188  and  _190
REMARK   78  A    between atoms: _190  and  _191
REMARK   79  A    between atoms: _190  and  _193
REMARK   80  A    between atoms: _193  and  _194
REMARK   81  A    between atoms: _197  and  _199
REMARK   82  A    between atoms: _199  and  _200
REMARK   83  A    between atoms: _199  and  _202
REMARK   84  A    between atoms: _205  and  _207
REMARK   85  A    between atoms: _207  and  _208
REMARK   86  A    between atoms: _207  and  _210
REMARK   87  A    between atoms: _210  and  _211
REMARK   88  A    between atoms: _217  and  _219
REMARK   89  A    between atoms: _219  and  _220
REMARK   90  A    between atoms: _219  and  _222
REMARK   91  A    between atoms: _222  and  _223
REMARK   92  A    between atoms: _226  and  _228
REMARK   93  A    between atoms: _228  and  _229
REMARK   94  A    between atoms: _228  and  _231
REMARK   95  A    between atoms: _231  and  _232
REMARK   96  A    between atoms: _237  and  _238
REMARK   97  A    between atoms: _240  and  _242
REMARK   98  A    between atoms: _242  and  _243
REMARK   99  A    between atoms: _242  and  _245
REMARK  100  A    between atoms: _245  and  _246
REMARK  101  A    between atoms: _248  and  _250
REMARK  102  A    between atoms: _250  and  _251
REMARK  103  A    between atoms: _250  and  _253
REMARK  104  A    between atoms: _253  and  _254
REMARK  105  A    between atoms: _260  and  _262
REMARK  106  A    between atoms: _262  and  _263
REMARK  107  A    between atoms: _265  and  _267
REMARK  108  A    between atoms: _267  and  _268
REMARK  109  A    between atoms: _267  and  _270
REMARK  110  A    between atoms: _270  and  _271
REMARK  111  A    between atoms: _274  and  _276
REMARK  112  A    between atoms: _276  and  _277
REMARK  113  A    between atoms: _276  and  _279
REMARK  114  A    between atoms: _279  and  _280
REMARK  115  A    between atoms: _283  and  _285
REMARK  116  A    between atoms: _285  and  _286
REMARK  117  A    between atoms: _285  and  _288
REMARK  118  A    between atoms: _288  and  _289
REMARK  119  A    between atoms: _292  and  _294
REMARK  120  A    between atoms: _294  and  _295
REMARK  121  A    between atoms: _297  and  _299
REMARK  122  A    between atoms: _299  and  _300
REMARK  123  A    between atoms: _299  and  _302
REMARK  124  A    between atoms: _302  and  _303
REMARK  125  A    between atoms: _313  and  _315
REMARK  126  A    between atoms: _315  and  _316
REMARK  127  A    between atoms: _315  and  _318
REMARK  128  A    between atoms: _318  and  _319
REMARK  129  A    between atoms: _322  and  _324
REMARK  130  A    between atoms: _324  and  _325
REMARK  131  A    between atoms: _324  and  _327
REMARK  132  A    between atoms: _327  and  _328
REMARK  133  A    between atoms: _331  and  _333
REMARK  134  A    between atoms: _333  and  _334
REMARK  135  A    between atoms: _333  and  _336
REMARK  136  A    between atoms: _336  and  _337
REMARK  137  A    between atoms: _339  and  _341
REMARK  138  A    between atoms: _341  and  _342
REMARK  139  A    between atoms: _341  and  _344
REMARK  140  A    between atoms: _344  and  _345
REMARK  141  A    between atoms: _348  and  _350
REMARK  142  A    between atoms: _350  and  _351
REMARK  143  A    between atoms: _350  and  _353
REMARK  144  A    between atoms: _353  and  _354
REMARK  145  A    between atoms: _357  and  _359
REMARK  146  A    between atoms: _359  and  _360
REMARK  147  A    between atoms: _359  and  _362
REMARK  148  A    between atoms: _362  and  _363
REMARK  149  A    between atoms: _368  and  _369
REMARK  150  A    between atoms: _371  and  _373
REMARK  151  A    between atoms: _373  and  _374
REMARK  152  A    between atoms: _373  and  _376
REMARK  153  A    between atoms: _376  and  _377
REMARK  154  A    between atoms: _387  and  _389
REMARK  155  A    between atoms: _389  and  _390
REMARK  156  A    between atoms: _389  and  _392
REMARK  157  A    between atoms: _392  and  _393
REMARK  158  A    between atoms: _398  and  _400
REMARK  159  A    between atoms: _400  and  _401
REMARK  160  A    between atoms: _400  and  _403
REMARK  161  A    between atoms: _403  and  _404
REMARK  162  A    between atoms: _407  and  _409
REMARK  163  A    between atoms: _409  and  _410
REMARK  164  A    between atoms: _409  and  _412
REMARK  165  A    between atoms: _415  and  _417
REMARK  166  A    between atoms: _417  and  _418
REMARK  167  A    between atoms: _417  and  _420
REMARK  168  A    between atoms: _420  and  _421
REMARK  169  A    between atoms: _424  and  _426
REMARK  170  A    between atoms: _426  and  _427
REMARK  171  A    between atoms: _426  and  _429
REMARK  172  A    between atoms: _429  and  _430
REMARK  173  A    between atoms: _432  and  _434
REMARK  174  A    between atoms: _434  and  _435
REMARK  175  A    between atoms: _437  and  _439
REMARK  176  A    between atoms: _439  and  _440
REMARK  177  A    between atoms: _439  and  _442
REMARK  178  A    between atoms: _442  and  _443
REMARK  179  A    between atoms: _446  and  _448
REMARK  180  A    between atoms: _448  and  _449
REMARK  181  A    between atoms: _448  and  _451
REMARK  182  A    between atoms: _451  and  _452
REMARK  183  A    between atoms: _454  and  _456
REMARK  184  A    between atoms: _456  and  _457
REMARK  185  A    between atoms: _460  and  _462
REMARK  186  A    between atoms: _462  and  _463
REMARK  187  A    between atoms: _462  and  _465
REMARK  188  A    between atoms: _465  and  _466
REMARK  189  A    between atoms: _469  and  _471
REMARK  190  A    between atoms: _471  and  _472
REMARK  191  A    between atoms: _471  and  _474
REMARK  192  A    between atoms: _474  and  _475
REMARK  193  A    between atoms: _478  and  _480
REMARK  194  A    between atoms: _480  and  _481
REMARK  195  A    between atoms: _480  and  _483
REMARK  196  A    between atoms: _487  and  _488
REMARK  197  A    between atoms: _493  and  _495
REMARK  198  A    between atoms: _495  and  _496
REMARK  199  A    between atoms: _495  and  _498
REMARK  200  A    between atoms: _498  and  _499
REMARK  201  A    between atoms: _504  and  _506
REMARK  202  A    between atoms: _506  and  _507
REMARK  203  A    between atoms: _506  and  _509
REMARK  204  A    between atoms: _509  and  _510
REMARK  205  A    between atoms: _513  and  _515
REMARK  206  A    between atoms: _515  and  _516
REMARK  207  A    between atoms: _515  and  _518
REMARK  208  A    between atoms: _518  and  _519
REMARK  209  A    between atoms: _522  and  _524
REMARK  210  A    between atoms: _524  and  _525
REMARK  211  A    between atoms: _524  and  _527
REMARK  212  A    between atoms: _527  and  _528
REMARK  213  A    between atoms: _531  and  _533
REMARK  214  A    between atoms: _533  and  _534
REMARK  215  A    between atoms: _533  and  _536
REMARK  216  A    between atoms: _536  and  _537
REMARK  217  A    between atoms: _543  and  _545
REMARK  218  A    between atoms: _545  and  _546
REMARK  219  A    between atoms: _545  and  _548
REMARK  220  A    between atoms: _548  and  _549
REMARK  221  A    between atoms: _552  and  _554
REMARK  222  A    between atoms: _554  and  _555
REMARK  223  A    between atoms: _554  and  _557
REMARK  224  A    between atoms: _557  and  _558
REMARK  225  A    between atoms: _564  and  _566
REMARK  226  A    between atoms: _566  and  _567
REMARK  227  A    between atoms: _566  and  _569
REMARK  228  A    between atoms: _569  and  _570
REMARK  229  A    between atoms: _573  and  _575
REMARK  230  A    between atoms: _575  and  _576
REMARK  231  A    between atoms: _575  and  _578
REMARK  232  A    between atoms: _578  and  _579
REMARK  233  A    between atoms: _582  and  _584
REMARK  234  A    between atoms: _584  and  _585
REMARK  235  A    between atoms: _587  and  _589
REMARK  236  A    between atoms: _589  and  _590
REMARK  237  A    between atoms: _589  and  _592
REMARK  238  A    between atoms: _592  and  _593
REMARK                            x       y       z     vdW  Elec       q    Type
REMARK                         _______ _______ _______ _____ _____    ______ ____
ROOT
ATOM      1  CA  TYR A   2      21.837  29.763   3.470  0.00  0.00    +0.141 C 
ENDROOT
BRANCH   1   3
ATOM      2  C   THR A   1      23.946  29.246   2.375  0.00  0.00    +0.241 C 
ATOM      3  N   TYR A   2      23.067  30.156   2.778  0.00  0.00    -0.298 N 
ATOM      4  H   TYR A   2      23.255  31.163   2.600  0.00  0.00    +0.150 HD
ATOM      5  O   THR A   1      23.758  28.060   2.476  0.00  0.00    -0.274 OA
BRANCH   2   6
ATOM      6  CA  THR A   1      25.217  29.716   1.689  0.00  0.00    +0.172 C 
BRANCH   6   7
ATOM      7  N   THR A   1      24.926  30.520   0.511  0.00  0.00    -0.236 NA
ATOM      8  H   THR A   1      25.317  31.481   0.438  0.00  0.00    +0.142 HD
ENDBRANCH   6   7
BRANCH   6   9
ATOM      9  CB  THR A   1      26.128  30.461   2.723  0.00  0.00    +0.135 C 
ATOM     10  CG2 THR A   1      26.364  29.604   3.968  0.00  0.00    +0.034 C 
BRANCH   9  11
ATOM     11  OG1 THR A   1      27.381  30.731   2.117  0.00  0.00    -0.383 OA
ATOM     12  HG1 THR A   1      27.244  31.300   1.318  0.00  0.00    +0.210 HD
ENDBRANCH   9  11
ENDBRANCH   6   9
ENDBRANCH   2   6
ENDBRANCH   1   3
BRANCH   1  13
ATOM     13  C   TYR A   2      20.982  28.757   2.644  0.00  0.00    +0.227 C 
ATOM     14  O   TYR A   2      20.406  27.778   3.167  0.00  0.00    -0.286 OA
ENDBRANCH   1  13
BRANCH   1  15
ATOM     15  CB  TYR A   2      21.056  31.029   3.791  0.00  0.00    +0.054 C 
BRANCH  15  16
ATOM     16  CG  TYR A   2      20.001  30.827   4.825  0.00  0.00    -0.020 A 
ATOM     17  CD2 TYR A   2      20.285  30.158   6.010  0.00  0.00    -0.001 A 
ATOM     18  CE2 TYR A   2      19.283  29.957   6.987  0.00  0.00    +0.036 A 
ATOM     19  CZ  TYR A   2      17.989  30.448   6.754  0.00  0.00    +0.134 A 
ATOM     20  CE1 TYR A   2      17.697  31.123   5.583  0.00  0.00    +0.036 A 
ATOM     21  CD1 TYR A   2      18.705  31.302   4.623  0.00  0.00    -0.001 A 
BRANCH  19  22
ATOM     22  OH  TYR A   2      16.985  30.225   7.652  0.00  0.00    -0.506 OA
ATOM     23  HH  TYR A   2      17.231  30.621   8.525  0.00  0.00    +0.292 HD
ENDBRANCH  19  22
ENDBRANCH  15  16
ENDBRANCH   1  15
TORSDOF 9
REMARK  Name = ../refined-set-2016/1lee/1lee_pocket.pdb
REMARK  238 active torsions:
REMARK  status: ('A' for Active; 'I' for Inactive)
REMARK    1  A    between atoms: _1  and  _3
REMARK    2  A    between atoms: _3  and  _4
REMARK    3  A    between atoms: _3  and  _6
REMARK    4  A    between atoms: _6  and  _7
REMARK    5  A    between atoms: _10  and  _12
REMARK    6  A    between atoms: _12  and  _13
REMARK    7  A    between atoms: _12  and  _15
REMARK    8  A    between atoms: _16  and  _17
REMARK    9  A    between atoms: _19  and  _21
REMARK   10  A    between atoms: _21  and  _22
REMARK   11  A    between atoms: _21  and  _24
REMARK   12  A    between atoms: _24  and  _25
REMARK   13  A    between atoms: _30  and  _31
REMARK   14  A    between atoms: _33  and  _35
REMARK   15  A    between atoms: _35  and  _36
REMARK   16  A    between atoms: _35  and  _38
REMARK   17  A    between atoms: _38  and  _39
REMARK   18  A    between atoms: _42  and  _44
REMARK   19  A    between atoms: _44  and  _45
REMARK   20  A    between atoms: _44  and  _47
REMARK   21  A    between atoms: _47  and  _48
REMARK   22  A    between atoms: _51  and  _53
REMARK   23  A    between atoms: _53  and  _54
REMARK   24  A    between atoms: _53  and  _56
REMARK   25  A    between atoms: _56  and  _57
REMARK   26  A    between atoms: _60  and  _62
REMARK   27  A    between atoms: _62  and  _63
REMARK   28  A    between atoms: _62  and  _65
REMARK   29  A    between atoms: _65  and  _66
REMARK   30  A    between atoms: _69  and  _71
REMARK   31  A    between atoms: _71  and  _72
REMARK   32  A    between atoms: _74  and  _76
REMARK   33  A    between atoms: _76  and  _77
REMARK   34  A    between atoms: _76  and  _79
REMARK   35  A    between atoms: _79  and  _80
REMARK   36  A    between atoms: _82  and  _84
REMARK   37  A    between atoms: _84  and  _85
REMARK   38  A    between atoms: _88  and  _90
REMARK   39  A    between atoms: _90  and  _91
REMARK   40  A    between atoms: _90  and  _93
REMARK   41  A    between atoms: _93  and  _94
REMARK   42  A    between atoms: _99  and  _101
REMARK   43  A    between atoms: _101  and  _102
REMARK   44  A    between atoms: _101  and  _104
REMARK   45  A    between atoms: _104  and  _105
REMARK   46  A    between atoms: _115  and  _117
REMARK   47  A    between atoms: _117  and  _118
REMARK   48  A    between atoms: _117  and  _120
REMARK   49  A    between atoms: _123  and  _125
REMARK   50  A    between atoms: _125  and  _126
REMARK   51  A    between atoms: _125  and  _128
REMARK   52  A    between atoms: _128  and  _129
REMARK   53  A    between atoms: _129  and  _130
REMARK   54  A    between atoms: _133  and  _135
REMARK   55  A    between atoms: _135  and  _136
REMARK   56  A    between atoms: _135  and  _138
REMARK   57  A    between atoms: _138  and  _139
REMARK   58  A    between atoms: _139  and  _140
REMARK   59  A    between atoms: _142  and  _144
REMARK   60  A    between atoms: _144  and  _145
REMARK   61  A    between atoms: _144  and  _147
REMARK   62  A    between atoms: _147  and  _148
REMARK   63  A    between atoms: _153  and  _155
REMARK   64  A    between atoms: _155  and  _156
REMARK   65  A    between atoms: _155  and  _158
REMARK   66  A    between atoms: _158  and  _159
REMARK   67  A    between atoms: _164  and  _165
REMARK   68  A    between atoms: _167  and  _169
REMARK   69  A    between atoms: _169  and  _170
REMARK   70  A    between atoms: _169  and  _172
REMARK   71  A    between atoms: _175  and  _177
REMARK   72  A    between atoms: _177  and  _178
REMARK   73  A    between atoms: _177  and  _180
REMARK   74  A    between atoms: _180  and  _181
REMARK   75  A    between atoms: _183  and  _185
REMARK   76  A    between atoms: _185  and  _186
REMARK   77  A    between atoms: _188  and  _190
REMARK   78  A    between atoms: _190  and  _191
REMARK   79  A    between atoms: _190  and  _193
REMARK   80  A    between atoms: _193  and  _194
REMARK   81  A    between atoms: _197  and  _199
REMARK   82  A    between atoms: _199  and  _200
REMARK   83  A    between atoms: _199  and  _202
REMARK   84  A    between atoms: _205  and  _207
REMARK   85  A    between atoms: _207  and  _208
REMARK   86  A    between atoms: _207  and  _210
REMARK   87  A    between atoms: _210  and  _211
REMARK   88  A    between atoms: _217  and  _219
REMARK   89  A    between atoms: _219  and  _220
REMARK   90  A    between atoms: _219  and  _222
REMARK   91  A    between atoms: _222  and  _223
REMARK   92  A    between atoms: _226  and  _228
REMARK   93  A    between atoms: _228  and  _229
REMARK   94  A    between atoms: _228  and  _231
REMARK   95  A    between atoms: _231  and  _232
REMARK   96  A    between atoms: _237  and  _238
REMARK   97  A    between atoms: _240  and  _242
REMARK   98  A    between atoms: _242  and  _243
REMARK   99  A    between atoms: _242  and  _245
REMARK  100  A    between atoms: _245  and  _246
REMARK  101  A    between atoms: _248  and  _250
REMARK  102  A    between atoms: _250  and  _251
REMARK  103  A    between atoms: _250  and  _253
REMARK  104  A    between atoms: _253  and  _254
REMARK  105  A    between atoms: _260  and  _262
REMARK  106  A    between atoms: _262  and  _263
REMARK  107  A    between atoms: _265  and  _267
REMARK  108  A    between atoms: _267  and  _268
REMARK  109  A    between atoms: _267  and  _270
REMARK  110  A    between atoms: _270  and  _271
REMARK  111  A    between atoms: _274  and  _276
REMARK  112  A    between atoms: _276  and  _277
REMARK  113  A    between atoms: _276  and  _279
REMARK  114  A    between atoms: _279  and  _280
REMARK  115  A    between atoms: _283  and  _285
REMARK  116  A    between atoms: _285  and  _286
REMARK  117  A    between atoms: _285  and  _288
REMARK  118  A    between atoms: _288  and  _289
REMARK  119  A    between atoms: _292  and  _294
REMARK  120  A    between atoms: _294  and  _295
REMARK  121  A    between atoms: _297  and  _299
REMARK  122  A    between atoms: _299  and  _300
REMARK  123  A    between atoms: _299  and  _302
REMARK  124  A    between atoms: _302  and  _303
REMARK  125  A    between atoms: _313  and  _315
REMARK  126  A    between atoms: _315  and  _316
REMARK  127  A    between atoms: _315  and  _318
REMARK  128  A    between atoms: _318  and  _319
REMARK  129  A    between atoms: _322  and  _324
REMARK  130  A    between atoms: _324  and  _325
REMARK  131  A    between atoms: _324  and  _327
REMARK  132  A    between atoms: _327  and  _328
REMARK  133  A    between atoms: _331  and  _333
REMARK  134  A    between atoms: _333  and  _334
REMARK  135  A    between atoms: _333  and  _336
REMARK  136  A    between atoms: _336  and  _337
REMARK  137  A    between atoms: _339  and  _341
REMARK  138  A    between atoms: _341  and  _342
REMARK  139  A    between atoms: _341  and  _344
REMARK  140  A    between atoms: _344  and  _345
REMARK  141  A    between atoms: _348  and  _350
REMARK  142  A    between atoms: _350  and  _351
REMARK  143  A    between atoms: _350  and  _353
REMARK  144  A    between atoms: _353  and  _354
REMARK  145  A    between atoms: _357  and  _359
REMARK  146  A    between atoms: _359  and  _360
REMARK  147  A    between atoms: _359  and  _362
REMARK  148  A    between atoms: _362  and  _363
REMARK  149  A    between atoms: _368  and  _369
REMARK  150  A    between atoms: _371  and  _373
REMARK  151  A    between atoms: _373  and  _374
REMARK  152  A    between atoms: _373  and  _376
REMARK  153  A    between atoms: _376  and  _377
REMARK  154  A    between atoms: _387  and  _389
REMARK  155  A    between atoms: _389  and  _390
REMARK  156  A    between atoms: _389  and  _392
REMARK  157  A    between atoms: _392  and  _393
REMARK  158  A    between atoms: _398  and  _400
REMARK  159  A    between atoms: _400  and  _401
REMARK  160  A    between atoms: _400  and  _403
REMARK  161  A    between atoms: _403  and  _404
REMARK  162  A    between atoms: _407  and  _409
REMARK  163  A    between atoms: _409  and  _410
REMARK  164  A    between atoms: _409  and  _412
REMARK  165  A    between atoms: _415  and  _417
REMARK  166  A    between atoms: _417  and  _418
REMARK  167  A    between atoms: _417  and  _420
REMARK  168  A    between atoms: _420  and  _421
REMARK  169  A    between atoms: _424  and  _426
REMARK  170  A    between atoms: _426  and  _427
REMARK  171  A    between atoms: _426  and  _429
REMARK  172  A    between atoms: _429  and  _430
REMARK  173  A    between atoms: _432  and  _434
REMARK  174  A    between atoms: _434  and  _435
REMARK  175  A    between atoms: _437  and  _439
REMARK  176  A    between atoms: _439  and  _440
REMARK  177  A    between atoms: _439  and  _442
REMARK  178  A    between atoms: _442  and  _443
REMARK  179  A    between atoms: _446  and  _448
REMARK  180  A    between atoms: _448  and  _449
REMARK  181  A    between atoms: _448  and  _451
REMARK  182  A    between atoms: _451  and  _452
REMARK  183  A    between atoms: _454  and  _456
REMARK  184  A    between atoms: _456  and  _457
REMARK  185  A    between atoms: _460  and  _462
REMARK  186  A    between atoms: _462  and  _463
REMARK  187  A    between atoms: _462  and  _465
REMARK  188  A    between atoms: _465  and  _466
REMARK  189  A    between atoms: _469  and  _471
REMARK  190  A    between atoms: _471  and  _472
REMARK  191  A    between atoms: _471  and  _474
REMARK  192  A    between atoms: _474  and  _475
REMARK  193  A    between atoms: _478  and  _480
REMARK  194  A    between atoms: _480  and  _481
REMARK  195  A    between atoms: _480  and  _483
REMARK  196  A    between atoms: _487  and  _488
REMARK  197  A    between atoms: _493  and  _495
REMARK  198  A    between atoms: _495  and  _496
REMARK  199  A    between atoms: _495  and  _498
REMARK  200  A    between atoms: _498  and  _499
REMARK  201  A    between atoms: _504  and  _506
REMARK  202  A    between atoms: _506  and  _507
REMARK  203  A    between atoms: _506  and  _509
REMARK  204  A    between atoms: _509  and  _510
REMARK  205  A    between atoms: _513  and  _515
REMARK  206  A    between atoms: _515  and  _516
REMARK  207  A    between atoms: _515  and  _518
REMARK  208  A    between atoms: _518  and  _519
REMARK  209  A    between atoms: _522  and  _524
REMARK  210  A    between atoms: _524  and  _525
REMARK  211  A    between atoms: _524  and  _527
REMARK  212  A    between atoms: _527  and  _528
REMARK  213  A    between atoms: _531  and  _533
REMARK  214  A    between atoms: _533  and  _534
REMARK  215  A    between atoms: _533  and  _536
REMARK  216  A    between atoms: _536  and  _537
REMARK  217  A    between atoms: _543  and  _545
REMARK  218  A    between atoms: _545  and  _546
REMARK  219  A    between atoms: _545  and  _548
REMARK  220  A    between atoms: _548  and  _549
REMARK  221  A    between atoms: _552  and  _554
REMARK  222  A    between atoms: _554  and  _555
REMARK  223  A    between atoms: _554  and  _557
REMARK  224  A    between atoms: _557  and  _558
REMARK  225  A    between atoms: _564  and  _566
REMARK  226  A    between atoms: _566  and  _567
REMARK  227  A    between atoms: _566  and  _569
REMARK  228  A    between atoms: _569  and  _570
REMARK  229  A    between atoms: _573  and  _575
REMARK  230  A    between atoms: _575  and  _576
REMARK  231  A    between atoms: _575  and  _578
REMARK  232  A    between atoms: _578  and  _579
REMARK  233  A    between atoms: _582  and  _584
REMARK  234  A    between atoms: _584  and  _585
REMARK  235  A    between atoms: _587  and  _589
REMARK  236  A    between atoms: _589  and  _590
REMARK  237  A    between atoms: _589  and  _592
REMARK  238  A    between atoms: _592  and  _593
REMARK                            x       y       z     vdW  Elec       q    Type
REMARK                         _______ _______ _______ _____ _____    ______ ____
ROOT
ATOM      1  CA  SER A   1      22.338  24.923   4.563  0.00  0.00    +0.163 C 
ENDROOT
BRANCH   1   2
ATOM      2  N   SER A   1      22.122  25.200   3.118  0.00  0.00    -0.237 NA
ATOM      3  H   SER A   1      21.239  25.666   2.828  0.00  0.00    +0.142 HD
ENDBRANCH   1   2
BRANCH   1   4
ATOM      4  CB  SER A   1      21.146  24.174   5.108  0.00  0.00    +0.227 C 
ATOM      5  OG  SER A   1      20.041  24.426   4.676  0.00  0.00    -0.287 OA
ENDBRANCH   1   4
BRANCH   1   6
ATOM      6  C   SER A   1      22.436  26.227   5.352  0.00  0.00    +0.162 C 
BRANCH   6   7
ATOM      7  O   SER A   1      23.581  26.972   4.966  0.00  0.00    -0.380 OA
ATOM      8  H   SER A   1      23.620  27.810   5.491  0.00  0.00    +0.211 HD
ENDBRANCH   6   7
ENDBRANCH   1   6
TORSDOF 4
REMARK  Name = ../refined-set-2016/1lee/1lee_pocket.pdb
REMARK  238 active torsions:
REMARK  status: ('A' for Active; 'I' for Inactive)
REMARK    1  A    between atoms: _1  and  _3
REMARK    2  A    between atoms: _3  and  _4
REMARK    3  A    between atoms: _3  and  _6
REMARK    4  A    between atoms: _6  and  _7
REMARK    5  A    between atoms: _10  and  _12
REMARK    6  A    between atoms: _12  and  _13
REMARK    7  A    between atoms: _12  and  _15
REMARK    8  A    between atoms: _16  and  _17
REMARK    9  A    between atoms: _19  and  _21
REMARK   10  A    between atoms: _21  and  _22
REMARK   11  A    between atoms: _21  and  _24
REMARK   12  A    between atoms: _24  and  _25
REMARK   13  A    between atoms: _30  and  _31
REMARK   14  A    between atoms: _33  and  _35
REMARK   15  A    between atoms: _35  and  _36
REMARK   16  A    between atoms: _35  and  _38
REMARK   17  A    between atoms: _38  and  _39
REMARK   18  A    between atoms: _42  and  _44
REMARK   19  A    between atoms: _44  and  _45
REMARK   20  A    between atoms: _44  and  _47
REMARK   21  A    between atoms: _47  and  _48
REMARK   22  A    between atoms: _51  and  _53
REMARK   23  A    between atoms: _53  and  _54
REMARK   24  A    between atoms: _53  and  _56
REMARK   25  A    between atoms: _56  and  _57
REMARK   26  A    between atoms: _60  and  _62
REMARK   27  A    between atoms: _62  and  _63
REMARK   28  A    between atoms: _62  and  _65
REMARK   29  A    between atoms: _65  and  _66
REMARK   30  A    between atoms: _69  and  _71
REMARK   31  A    between atoms: _71  and  _72
REMARK   32  A    between atoms: _74  and  _76
REMARK   33  A    between atoms: _76  and  _77
REMARK   34  A    between atoms: _76  and  _79
REMARK   35  A    between atoms: _79  and  _80
REMARK   36  A    between atoms: _82  and  _84
REMARK   37  A    between atoms: _84  and  _85
REMARK   38  A    between atoms: _88  and  _90
REMARK   39  A    between atoms: _90  and  _91
REMARK   40  A    between atoms: _90  and  _93
REMARK   41  A    between atoms: _93  and  _94
REMARK   42  A    between atoms: _99  and  _101
REMARK   43  A    between atoms: _101  and  _102
REMARK   44  A    between atoms: _101  and  _104
REMARK   45  A    between atoms: _104  and  _105
REMARK   46  A    between atoms: _115  and  _117
REMARK   47  A    between atoms: _117  and  _118
REMARK   48  A    between atoms: _117  and  _120
REMARK   49  A    between atoms: _123  and  _125
REMARK   50  A    between atoms: _125  and  _126
REMARK   51  A    between atoms: _125  and  _128
REMARK   52  A    between atoms: _128  and  _129
REMARK   53  A    between atoms: _129  and  _130
REMARK   54  A    between atoms: _133  and  _135
REMARK   55  A    between atoms: _135  and  _136
REMARK   56  A    between atoms: _135  and  _138
REMARK   57  A    between atoms: _138  and  _139
REMARK   58  A    between atoms: _139  and  _140
REMARK   59  A    between atoms: _142  and  _144
REMARK   60  A    between atoms: _144  and  _145
REMARK   61  A    between atoms: _144  and  _147
REMARK   62  A    between atoms: _147  and  _148
REMARK   63  A    between atoms: _153  and  _155
REMARK   64  A    between atoms: _155  and  _156
REMARK   65  A    between atoms: _155  and  _158
REMARK   66  A    between atoms: _158  and  _159
REMARK   67  A    between atoms: _164  and  _165
REMARK   68  A    between atoms: _167  and  _169
REMARK   69  A    between atoms: _169  and  _170
REMARK   70  A    between atoms: _169  and  _172
REMARK   71  A    between atoms: _175  and  _177
REMARK   72  A    between atoms: _177  and  _178
REMARK   73  A    between atoms: _177  and  _180
REMARK   74  A    between atoms: _180  and  _181
REMARK   75  A    between atoms: _183  and  _185
REMARK   76  A    between atoms: _185  and  _186
REMARK   77  A    between atoms: _188  and  _190
REMARK   78  A    between atoms: _190  and  _191
REMARK   79  A    between atoms: _190  and  _193
REMARK   80  A    between atoms: _193  and  _194
REMARK   81  A    between atoms: _197  and  _199
REMARK   82  A    between atoms: _199  and  _200
REMARK   83  A    between atoms: _199  and  _202
REMARK   84  A    between atoms: _205  and  _207
REMARK   85  A    between atoms: _207  and  _208
REMARK   86  A    between atoms: _207  and  _210
REMARK   87  A    between atoms: _210  and  _211
REMARK   88  A    between atoms: _217  and  _219
REMARK   89  A    between atoms: _219  and  _220
REMARK   90  A    between atoms: _219  and  _222
REMARK   91  A    between atoms: _222  and  _223
REMARK   92  A    between atoms: _226  and  _228
REMARK   93  A    between atoms: _228  and  _229
REMARK   94  A    between atoms: _228  and  _231
REMARK   95  A    between atoms: _231  and  _232
REMARK   96  A    between atoms: _237  and  _238
REMARK   97  A    between atoms: _240  and  _242
REMARK   98  A    between atoms: _242  and  _243
REMARK   99  A    between atoms: _242  and  _245
REMARK  100  A    between atoms: _245  and  _246
REMARK  101  A    between atoms: _248  and  _250
REMARK  102  A    between atoms: _250  and  _251
REMARK  103  A    between atoms: _250  and  _253
REMARK  104  A    between atoms: _253  and  _254
REMARK  105  A    between atoms: _260  and  _262
REMARK  106  A    between atoms: _262  and  _263
REMARK  107  A    between atoms: _265  and  _267
REMARK  108  A    between atoms: _267  and  _268
REMARK  109  A    between atoms: _267  and  _270
REMARK  110  A    between atoms: _270  and  _271
REMARK  111  A    between atoms: _274  and  _276
REMARK  112  A    between atoms: _276  and  _277
REMARK  113  A    between atoms: _276  and  _279
REMARK  114  A    between atoms: _279  and  _280
REMARK  115  A    between atoms: _283  and  _285
REMARK  116  A    between atoms: _285  and  _286
REMARK  117  A    between atoms: _285  and  _288
REMARK  118  A    between atoms: _288  and  _289
REMARK  119  A    between atoms: _292  and  _294
REMARK  120  A    between atoms: _294  and  _295
REMARK  121  A    between atoms: _297  and  _299
REMARK  122  A    between atoms: _299  and  _300
REMARK  123  A    between atoms: _299  and  _302
REMARK  124  A    between atoms: _302  and  _303
REMARK  125  A    between atoms: _313  and  _315
REMARK  126  A    between atoms: _315  and  _316
REMARK  127  A    between atoms: _315  and  _318
REMARK  128  A    between atoms: _318  and  _319
REMARK  129  A    between atoms: _322  and  _324
REMARK  130  A    between atoms: _324  and  _325
REMARK  131  A    between atoms: _324  and  _327
REMARK  132  A    between atoms: _327  and  _328
REMARK  133  A    between atoms: _331  and  _333
REMARK  134  A    between atoms: _333  and  _334
REMARK  135  A    between atoms: _333  and  _336
REMARK  136  A    between atoms: _336  and  _337
REMARK  137  A    between atoms: _339  and  _341
REMARK  138  A    between atoms: _341  and  _342
REMARK  139  A    between atoms: _341  and  _344
REMARK  140  A    between atoms: _344  and  _345
REMARK  141  A    between atoms: _348  and  _350
REMARK  142  A    between atoms: _350  and  _351
REMARK  143  A    between atoms: _350  and  _353
REMARK  144  A    between atoms: _353  and  _354
REMARK  145  A    between atoms: _357  and  _359
REMARK  146  A    between atoms: _359  and  _360
REMARK  147  A    between atoms: _359  and  _362
REMARK  148  A    between atoms: _362  and  _363
REMARK  149  A    between atoms: _368  and  _369
REMARK  150  A    between atoms: _371  and  _373
REMARK  151  A    between atoms: _373  and  _374
REMARK  152  A    between atoms: _373  and  _376
REMARK  153  A    between atoms: _376  and  _377
REMARK  154  A    between atoms: _387  and  _389
REMARK  155  A    between atoms: _389  and  _390
REMARK  156  A    between atoms: _389  and  _392
REMARK  157  A    between atoms: _392  and  _393
REMARK  158  A    between atoms: _398  and  _400
REMARK  159  A    between atoms: _400  and  _401
REMARK  160  A    between atoms: _400  and  _403
REMARK  161  A    between atoms: _403  and  _404
REMARK  162  A    between atoms: _407  and  _409
REMARK  163  A    between atoms: _409  and  _410
REMARK  164  A    between atoms: _409  and  _412
REMARK  165  A    between atoms: _415  and  _417
REMARK  166  A    between atoms: _417  and  _418
REMARK  167  A    between atoms: _417  and  _420
REMARK  168  A    between atoms: _420  and  _421
REMARK  169  A    between atoms: _424  and  _426
REMARK  170  A    between atoms: _426  and  _427
REMARK  171  A    between atoms: _426  and  _429
REMARK  172  A    between atoms: _429  and  _430
REMARK  173  A    between atoms: _432  and  _434
REMARK  174  A    between atoms: _434  and  _435
REMARK  175  A    between atoms: _437  and  _439
REMARK  176  A    between atoms: _439  and  _440
REMARK  177  A    between atoms: _439  and  _442
REMARK  178  A    between atoms: _442  and  _443
REMARK  179  A    between atoms: _446  and  _448
REMARK  180  A    between atoms: _448  and  _449
REMARK  181  A    between atoms: _448  and  _451
REMARK  182  A    between atoms: _451  and  _452
REMARK  183  A    between atoms: _454  and  _456
REMARK  184  A    between atoms: _456  and  _457
REMARK  185  A    between atoms: _460  and  _462
REMARK  186  A    between atoms: _462  and  _463
REMARK  187  A    between atoms: _462  and  _465
REMARK  188  A    between atoms: _465  and  _466
REMARK  189  A    between atoms: _469  and  _471
REMARK  190  A    between atoms: _471  and  _472
REMARK  191  A    between atoms: _471  and  _474
REMARK  192  A    between atoms: _474  and  _475
REMARK  193  A    between atoms: _478  and  _480
REMARK  194  A    between atoms: _480  and  _481
REMARK  195  A    between atoms: _480  and  _483
REMARK  196  A    between atoms: _487  and  _488
REMARK  197  A    between atoms: _493  and  _495
REMARK  198  A    between atoms: _495  and  _496
REMARK  199  A    between atoms: _495  and  _498
REMARK  200  A    between atoms: _498  and  _499
REMARK  201  A    between atoms: _504  and  _506
REMARK  202  A    between atoms: _506  and  _507
REMARK  203  A    between atoms: _506  and  _509
REMARK  204  A    between atoms: _509  and  _510
REMARK  205  A    between atoms: _513  and  _515
REMARK  206  A    between atoms: _515  and  _516
REMARK  207  A    between atoms: _515  and  _518
REMARK  208  A    between atoms: _518  and  _519
REMARK  209  A    between atoms: _522  and  _524
REMARK  210  A    between atoms: _524  and  _525
REMARK  211  A    between atoms: _524  and  _527
REMARK  212  A    between atoms: _527  and  _528
REMARK  213  A    between atoms: _531  and  _533
REMARK  214  A    between atoms: _533  and  _534
REMARK  215  A    between atoms: _533  and  _536
REMARK  216  A    between atoms: _536  and  _537
REMARK  217  A    between atoms: _543  and  _545
REMARK  218  A    between atoms: _545  and  _546
REMARK  219  A    between atoms: _545  and  _548
REMARK  220  A    between atoms: _548  and  _549
REMARK  221  A    between atoms: _552  and  _554
REMARK  222  A    between atoms: _554  and  _555
REMARK  223  A    between atoms: _554  and  _557
REMARK  224  A    between atoms: _557  and  _558
REMARK  225  A    between atoms: _564  and  _566
REMARK  226  A    between atoms: _566  and  _567
REMARK  227  A    between atoms: _566  and  _569
REMARK  228  A    between atoms: _569  and  _570
REMARK  229  A    between atoms: _573  and  _575
REMARK  230  A    between atoms: _575  and  _576
REMARK  231  A    between atoms: _575  and  _578
REMARK  232  A    between atoms: _578  and  _579
REMARK  233  A    between atoms: _582  and  _584
REMARK  234  A    between atoms: _584  and  _585
REMARK  235  A    between atoms: _587  and  _589
REMARK  236  A    between atoms: _589  and  _590
REMARK  237  A    between atoms: _589  and  _592
REMARK  238  A    between atoms: _592  and  _593
REMARK                            x       y       z     vdW  Elec       q    Type
REMARK                         _______ _______ _______ _____ _____    ______ ____
ROOT
ATOM      1  CB  PHE A   1      21.440  25.335  10.424  0.00  0.00    +0.051 C 
ENDROOT
BRANCH   1   2
ATOM      2  CG  PHE A   1      22.197  26.453   9.708  0.00  0.00    -0.020 A 
ATOM      3  CD2 PHE A   1      21.776  27.751   9.785  0.00  0.00    -0.004 A 
ATOM      4  CE2 PHE A   1      22.501  28.784   9.215  0.00  0.00    -0.000 A 
ATOM      5  CZ  PHE A   1      23.686  28.505   8.553  0.00  0.00    -0.000 A 
ATOM      6  CE1 PHE A   1      24.138  27.209   8.454  0.00  0.00    -0.000 A 
ATOM      7  CD1 PHE A   1      23.390  26.187   9.029  0.00  0.00    -0.004 A 
ENDBRANCH   1   2
BRANCH   1   8
ATOM      8  CA  PHE A   1      20.186  24.815   9.677  0.00  0.00    +0.137 C 
BRANCH   8   9
ATOM      9  N   PHE A   1      20.540  24.123   8.442  0.00  0.00    -0.239 NA
ATOM     10  H   PHE A   1      21.410  24.396   7.941  0.00  0.00    +0.142 HD
ENDBRANCH   8   9
BRANCH   8  11
ATOM     11  C   PHE A   1      19.210  25.953   9.376  0.00  0.00    +0.224 C 
ATOM     12  O   PHE A   1      19.201  26.550   8.268  0.00  0.00    -0.287 OA
ENDBRANCH   8  11
ENDBRANCH   1   8
TORSDOF 4
REMARK  Name = ../refined-set-2016/1lee/1lee_pocket.pdb
REMARK  238 active torsions:
REMARK  status: ('A' for Active; 'I' for Inactive)
REMARK    1  A    between atoms: _1  and  _3
REMARK    2  A    between atoms: _3  and  _4
REMARK    3  A    between atoms: _3  and  _6
REMARK    4  A    between atoms: _6  and  _7
REMARK    5  A    between atoms: _10  and  _12
REMARK    6  A    between atoms: _12  and  _13
REMARK    7  A    between atoms: _12  and  _15
REMARK    8  A    between atoms: _16  and  _17
REMARK    9  A    between atoms: _19  and  _21
REMARK   10  A    between atoms: _21  and  _22
REMARK   11  A    between atoms: _21  and  _24
REMARK   12  A    between atoms: _24  and  _25
REMARK   13  A    between atoms: _30  and  _31
REMARK   14  A    between atoms: _33  and  _35
REMARK   15  A    between atoms: _35  and  _36
REMARK   16  A    between atoms: _35  and  _38
REMARK   17  A    between atoms: _38  and  _39
REMARK   18  A    between atoms: _42  and  _44
REMARK   19  A    between atoms: _44  and  _45
REMARK   20  A    between atoms: _44  and  _47
REMARK   21  A    between atoms: _47  and  _48
REMARK   22  A    between atoms: _51  and  _53
REMARK   23  A    between atoms: _53  and  _54
REMARK   24  A    between atoms: _53  and  _56
REMARK   25  A    between atoms: _56  and  _57
REMARK   26  A    between atoms: _60  and  _62
REMARK   27  A    between atoms: _62  and  _63
REMARK   28  A    between atoms: _62  and  _65
REMARK   29  A    between atoms: _65  and  _66
REMARK   30  A    between atoms: _69  and  _71
REMARK   31  A    between atoms: _71  and  _72
REMARK   32  A    between atoms: _74  and  _76
REMARK   33  A    between atoms: _76  and  _77
REMARK   34  A    between atoms: _76  and  _79
REMARK   35  A    between atoms: _79  and  _80
REMARK   36  A    between atoms: _82  and  _84
REMARK   37  A    between atoms: _84  and  _85
REMARK   38  A    between atoms: _88  and  _90
REMARK   39  A    between atoms: _90  and  _91
REMARK   40  A    between atoms: _90  and  _93
REMARK   41  A    between atoms: _93  and  _94
REMARK   42  A    between atoms: _99  and  _101
REMARK   43  A    between atoms: _101  and  _102
REMARK   44  A    between atoms: _101  and  _104
REMARK   45  A    between atoms: _104  and  _105
REMARK   46  A    between atoms: _115  and  _117
REMARK   47  A    between atoms: _117  and  _118
REMARK   48  A    between atoms: _117  and  _120
REMARK   49  A    between atoms: _123  and  _125
REMARK   50  A    between atoms: _125  and  _126
REMARK   51  A    between atoms: _125  and  _128
REMARK   52  A    between atoms: _128  and  _129
REMARK   53  A    between atoms: _129  and  _130
REMARK   54  A    between atoms: _133  and  _135
REMARK   55  A    between atoms: _135  and  _136
REMARK   56  A    between atoms: _135  and  _138
REMARK   57  A    between atoms: _138  and  _139
REMARK   58  A    between atoms: _139  and  _140
REMARK   59  A    between atoms: _142  and  _144
REMARK   60  A    between atoms: _144  and  _145
REMARK   61  A    between atoms: _144  and  _147
REMARK   62  A    between atoms: _147  and  _148
REMARK   63  A    between atoms: _153  and  _155
REMARK   64  A    between atoms: _155  and  _156
REMARK   65  A    between atoms: _155  and  _158
REMARK   66  A    between atoms: _158  and  _159
REMARK   67  A    between atoms: _164  and  _165
REMARK   68  A    between atoms: _167  and  _169
REMARK   69  A    between atoms: _169  and  _170
REMARK   70  A    between atoms: _169  and  _172
REMARK   71  A    between atoms: _175  and  _177
REMARK   72  A    between atoms: _177  and  _178
REMARK   73  A    between atoms: _177  and  _180
REMARK   74  A    between atoms: _180  and  _181
REMARK   75  A    between atoms: _183  and  _185
REMARK   76  A    between atoms: _185  and  _186
REMARK   77  A    between atoms: _188  and  _190
REMARK   78  A    between atoms: _190  and  _191
REMARK   79  A    between atoms: _190  and  _193
REMARK   80  A    between atoms: _193  and  _194
REMARK   81  A    between atoms: _197  and  _199
REMARK   82  A    between atoms: _199  and  _200
REMARK   83  A    between atoms: _199  and  _202
REMARK   84  A    between atoms: _205  and  _207
REMARK   85  A    between atoms: _207  and  _208
REMARK   86  A    between atoms: _207  and  _210
REMARK   87  A    between atoms: _210  and  _211
REMARK   88  A    between atoms: _217  and  _219
REMARK   89  A    between atoms: _219  and  _220
REMARK   90  A    between atoms: _219  and  _222
REMARK   91  A    between atoms: _222  and  _223
REMARK   92  A    between atoms: _226  and  _228
REMARK   93  A    between atoms: _228  and  _229
REMARK   94  A    between atoms: _228  and  _231
REMARK   95  A    between atoms: _231  and  _232
REMARK   96  A    between atoms: _237  and  _238
REMARK   97  A    between atoms: _240  and  _242
REMARK   98  A    between atoms: _242  and  _243
REMARK   99  A    between atoms: _242  and  _245
REMARK  100  A    between atoms: _245  and  _246
REMARK  101  A    between atoms: _248  and  _250
REMARK  102  A    between atoms: _250  and  _251
REMARK  103  A    between atoms: _250  and  _253
REMARK  104  A    between atoms: _253  and  _254
REMARK  105  A    between atoms: _260  and  _262
REMARK  106  A    between atoms: _262  and  _263
REMARK  107  A    between atoms: _265  and  _267
REMARK  108  A    between atoms: _267  and  _268
REMARK  109  A    between atoms: _267  and  _270
REMARK  110  A    between atoms: _270  and  _271
REMARK  111  A    between atoms: _274  and  _276
REMARK  112  A    between atoms: _276  and  _277
REMARK  113  A    between atoms: _276  and  _279
REMARK  114  A    between atoms: _279  and  _280
REMARK  115  A    between atoms: _283  and  _285
REMARK  116  A    between atoms: _285  and  _286
REMARK  117  A    between atoms: _285  and  _288
REMARK  118  A    between atoms: _288  and  _289
REMARK  119  A    between atoms: _292  and  _294
REMARK  120  A    between atoms: _294  and  _295
REMARK  121  A    between atoms: _297  and  _299
REMARK  122  A    between atoms: _299  and  _300
REMARK  123  A    between atoms: _299  and  _302
REMARK  124  A    between atoms: _302  and  _303
REMARK  125  A    between atoms: _313  and  _315
REMARK  126  A    between atoms: _315  and  _316
REMARK  127  A    between atoms: _315  and  _318
REMARK  128  A    between atoms: _318  and  _319
REMARK  129  A    between atoms: _322  and  _324
REMARK  130  A    between atoms: _324  and  _325
REMARK  131  A    between atoms: _324  and  _327
REMARK  132  A    between atoms: _327  and  _328
REMARK  133  A    between atoms: _331  and  _333
REMARK  134  A    between atoms: _333  and  _334
REMARK  135  A    between atoms: _333  and  _336
REMARK  136  A    between atoms: _336  and  _337
REMARK  137  A    between atoms: _339  and  _341
REMARK  138  A    between atoms: _341  and  _342
REMARK  139  A    between atoms: _341  and  _344
REMARK  140  A    between atoms: _344  and  _345
REMARK  141  A    between atoms: _348  and  _350
REMARK  142  A    between atoms: _350  and  _351
REMARK  143  A    between atoms: _350  and  _353
REMARK  144  A    between atoms: _353  and  _354
REMARK  145  A    between atoms: _357  and  _359
REMARK  146  A    between atoms: _359  and  _360
REMARK  147  A    between atoms: _359  and  _362
REMARK  148  A    between atoms: _362  and  _363
REMARK  149  A    between atoms: _368  and  _369
REMARK  150  A    between atoms: _371  and  _373
REMARK  151  A    between atoms: _373  and  _374
REMARK  152  A    between atoms: _373  and  _376
REMARK  153  A    between atoms: _376  and  _377
REMARK  154  A    between atoms: _387  and  _389
REMARK  155  A    between atoms: _389  and  _390
REMARK  156  A    between atoms: _389  and  _392
REMARK  157  A    between atoms: _392  and  _393
REMARK  158  A    between atoms: _398  and  _400
REMARK  159  A    between atoms: _400  and  _401
REMARK  160  A    between atoms: _400  and  _403
REMARK  161  A    between atoms: _403  and  _404
REMARK  162  A    between atoms: _407  and  _409
REMARK  163  A    between atoms: _409  and  _410
REMARK  164  A    between atoms: _409  and  _412
REMARK  165  A    between atoms: _415  and  _417
REMARK  166  A    between atoms: _417  and  _418
REMARK  167  A    between atoms: _417  and  _420
REMARK  168  A    between atoms: _420  and  _421
REMARK  169  A    between atoms: _424  and  _426
REMARK  170  A    between atoms: _426  and  _427
REMARK  171  A    between atoms: _426  and  _429
REMARK  172  A    between atoms: _429  and  _430
REMARK  173  A    between atoms: _432  and  _434
REMARK  174  A    between atoms: _434  and  _435
REMARK  175  A    between atoms: _437  and  _439
REMARK  176  A    between atoms: _439  and  _440
REMARK  177  A    between atoms: _439  and  _442
REMARK  178  A    between atoms: _442  and  _443
REMARK  179  A    between atoms: _446  and  _448
REMARK  180  A    between atoms: _448  and  _449
REMARK  181  A    between atoms: _448  and  _451
REMARK  182  A    between atoms: _451  and  _452
REMARK  183  A    between atoms: _454  and  _456
REMARK  184  A    between atoms: _456  and  _457
REMARK  185  A    between atoms: _460  and  _462
REMARK  186  A    between atoms: _462  and  _463
REMARK  187  A    between atoms: _462  and  _465
REMARK  188  A    between atoms: _465  and  _466
REMARK  189  A    between atoms: _469  and  _471
REMARK  190  A    between atoms: _471  and  _472
REMARK  191  A    between atoms: _471  and  _474
REMARK  192  A    between atoms: _474  and  _475
REMARK  193  A    between atoms: _478  and  _480
REMARK  194  A    between atoms: _480  and  _481
REMARK  195  A    between atoms: _480  and  _483
REMARK  196  A    between atoms: _487  and  _488
REMARK  197  A    between atoms: _493  and  _495
REMARK  198  A    between atoms: _495  and  _496
REMARK  199  A    between atoms: _495  and  _498
REMARK  200  A    between atoms: _498  and  _499
REMARK  201  A    between atoms: _504  and  _506
REMARK  202  A    between atoms: _506  and  _507
REMARK  203  A    between atoms: _506  and  _509
REMARK  204  A    between atoms: _509  and  _510
REMARK  205  A    between atoms: _513  and  _515
REMARK  206  A    between atoms: _515  and  _516
REMARK  207  A    between atoms: _515  and  _518
REMARK  208  A    between atoms: _518  and  _519
REMARK  209  A    between atoms: _522  and  _524
REMARK  210  A    between atoms: _524  and  _525
REMARK  211  A    between atoms: _524  and  _527
REMARK  212  A    between atoms: _527  and  _528
REMARK  213  A    between atoms: _531  and  _533
REMARK  214  A    between atoms: _533  and  _534
REMARK  215  A    between atoms: _533  and  _536
REMARK  216  A    between atoms: _536  and  _537
REMARK  217  A    between atoms: _543  and  _545
REMARK  218  A    between atoms: _545  and  _546
REMARK  219  A    between atoms: _545  and  _548
REMARK  220  A    between atoms: _548  and  _549
REMARK  221  A    between atoms: _552  and  _554
REMARK  222  A    between atoms: _554  and  _555
REMARK  223  A    between atoms: _554  and  _557
REMARK  224  A    between atoms: _557  and  _558
REMARK  225  A    between atoms: _564  and  _566
REMARK  226  A    between atoms: _566  and  _567
REMARK  227  A    between atoms: _566  and  _569
REMARK  228  A    between atoms: _569  and  _570
REMARK  229  A    between atoms: _573  and  _575
REMARK  230  A    between atoms: _575  and  _576
REMARK  231  A    between atoms: _575  and  _578
REMARK  232  A    between atoms: _578  and  _579
REMARK  233  A    between atoms: _582  and  _584
REMARK  234  A    between atoms: _584  and  _585
REMARK  235  A    between atoms: _587  and  _589
REMARK  236  A    between atoms: _589  and  _590
REMARK  237  A    between atoms: _589  and  _592
REMARK  238  A    between atoms: _592  and  _593
REMARK                            x       y       z     vdW  Elec       q    Type
REMARK                         _______ _______ _______ _____ _____    ______ ____
ROOT
ATOM      1  CA  ILE A   2      22.198  30.493  14.648  0.00  0.00    +0.148 C 
ENDROOT
BRANCH   1   3
ATOM      2  C   GLY A   1      20.578  29.554  13.128  0.00  0.00    +0.240 C 
ATOM      3  N   ILE A   2      21.018  30.591  13.819  0.00  0.00    -0.297 N 
ATOM      4  H   ILE A   2      20.506  31.494  13.765  0.00  0.00    +0.150 HD
ATOM      5  O   GLY A   1      21.132  28.461  13.129  0.00  0.00    -0.274 OA
BRANCH   2   6
ATOM      6  CA  GLY A   1      19.323  29.793  12.309  0.00  0.00    +0.169 C 
BRANCH   6   7
ATOM      7  N   GLY A   1      18.753  28.564  11.816  0.00  0.00    -0.236 NA
ATOM      8  H   GLY A   1      18.902  27.663  12.313  0.00  0.00    +0.142 HD
ENDBRANCH   6   7
ENDBRANCH   2   6
ENDBRANCH   1   3
BRANCH   1   9
ATOM      9  C   ILE A   2      21.911  30.896  16.097  0.00  0.00    +0.241 C 
ATOM     10  N   LEU A   3      22.427  30.087  17.026  0.00  0.00    -0.298 N 
ATOM     11  H   LEU A   3      22.947  29.237  16.730  0.00  0.00    +0.150 HD
ATOM     12  O   ILE A   2      21.158  31.830  16.351  0.00  0.00    -0.273 OA
BRANCH  10  13
ATOM     13  CA  LEU A   3      22.271  30.381  18.487  0.00  0.00    +0.137 C 
BRANCH  13  14
ATOM     14  C   LEU A   3      23.653  30.639  19.117  0.00  0.00    +0.227 C 
ATOM     15  O   LEU A   3      24.455  29.720  19.242  0.00  0.00    -0.286 OA
ENDBRANCH  13  14
BRANCH  13  16
ATOM     16  CB  LEU A   3      21.525  29.246  19.185  0.00  0.00    +0.028 C 
BRANCH  16  17
ATOM     17  CG  LEU A   3      21.034  29.416  20.620  0.00  0.00    +0.002 C 
ATOM     18  CD2 LEU A   3      22.198  29.154  21.611  0.00  0.00    +0.000 C 
ATOM     19  CD1 LEU A   3      19.867  28.405  20.860  0.00  0.00    +0.000 C 
ENDBRANCH  16  17
ENDBRANCH  13  16
ENDBRANCH  10  13
ENDBRANCH   1   9
BRANCH   1  20
ATOM     20  CB  ILE A   2      23.369  31.351  14.054  0.00  0.00    +0.027 C 
ATOM     21  CG2 ILE A   2      24.620  31.238  14.963  0.00  0.00    +0.002 C 
BRANCH  20  22
ATOM     22  CG1 ILE A   2      23.747  30.795  12.662  0.00  0.00    +0.002 C 
ATOM     23  CD1 ILE A   2      24.664  31.644  11.925  0.00  0.00    +0.000 C 
ENDBRANCH  20  22
ENDBRANCH   1  20
TORSDOF 10
REMARK  Name = ../refined-set-2016/1lee/1lee_pocket.pdb
REMARK  238 active torsions:
REMARK  status: ('A' for Active; 'I' for Inactive)
REMARK    1  A    between atoms: _1  and  _3
REMARK    2  A    between atoms: _3  and  _4
REMARK    3  A    between atoms: _3  and  _6
REMARK    4  A    between atoms: _6  and  _7
REMARK    5  A    between atoms: _10  and  _12
REMARK    6  A    between atoms: _12  and  _13
REMARK    7  A    between atoms: _12  and  _15
REMARK    8  A    between atoms: _16  and  _17
REMARK    9  A    between atoms: _19  and  _21
REMARK   10  A    between atoms: _21  and  _22
REMARK   11  A    between atoms: _21  and  _24
REMARK   12  A    between atoms: _24  and  _25
REMARK   13  A    between atoms: _30  and  _31
REMARK   14  A    between atoms: _33  and  _35
REMARK   15  A    between atoms: _35  and  _36
REMARK   16  A    between atoms: _35  and  _38
REMARK   17  A    between atoms: _38  and  _39
REMARK   18  A    between atoms: _42  and  _44
REMARK   19  A    between atoms: _44  and  _45
REMARK   20  A    between atoms: _44  and  _47
REMARK   21  A    between atoms: _47  and  _48
REMARK   22  A    between atoms: _51  and  _53
REMARK   23  A    between atoms: _53  and  _54
REMARK   24  A    between atoms: _53  and  _56
REMARK   25  A    between atoms: _56  and  _57
REMARK   26  A    between atoms: _60  and  _62
REMARK   27  A    between atoms: _62  and  _63
REMARK   28  A    between atoms: _62  and  _65
REMARK   29  A    between atoms: _65  and  _66
REMARK   30  A    between atoms: _69  and  _71
REMARK   31  A    between atoms: _71  and  _72
REMARK   32  A    between atoms: _74  and  _76
REMARK   33  A    between atoms: _76  and  _77
REMARK   34  A    between atoms: _76  and  _79
REMARK   35  A    between atoms: _79  and  _80
REMARK   36  A    between atoms: _82  and  _84
REMARK   37  A    between atoms: _84  and  _85
REMARK   38  A    between atoms: _88  and  _90
REMARK   39  A    between atoms: _90  and  _91
REMARK   40  A    between atoms: _90  and  _93
REMARK   41  A    between atoms: _93  and  _94
REMARK   42  A    between atoms: _99  and  _101
REMARK   43  A    between atoms: _101  and  _102
REMARK   44  A    between atoms: _101  and  _104
REMARK   45  A    between atoms: _104  and  _105
REMARK   46  A    between atoms: _115  and  _117
REMARK   47  A    between atoms: _117  and  _118
REMARK   48  A    between atoms: _117  and  _120
REMARK   49  A    between atoms: _123  and  _125
REMARK   50  A    between atoms: _125  and  _126
REMARK   51  A    between atoms: _125  and  _128
REMARK   52  A    between atoms: _128  and  _129
REMARK   53  A    between atoms: _129  and  _130
REMARK   54  A    between atoms: _133  and  _135
REMARK   55  A    between atoms: _135  and  _136
REMARK   56  A    between atoms: _135  and  _138
REMARK   57  A    between atoms: _138  and  _139
REMARK   58  A    between atoms: _139  and  _140
REMARK   59  A    between atoms: _142  and  _144
REMARK   60  A    between atoms: _144  and  _145
REMARK   61  A    between atoms: _144  and  _147
REMARK   62  A    between atoms: _147  and  _148
REMARK   63  A    between atoms: _153  and  _155
REMARK   64  A    between atoms: _155  and  _156
REMARK   65  A    between atoms: _155  and  _158
REMARK   66  A    between atoms: _158  and  _159
REMARK   67  A    between atoms: _164  and  _165
REMARK   68  A    between atoms: _167  and  _169
REMARK   69  A    between atoms: _169  and  _170
REMARK   70  A    between atoms: _169  and  _172
REMARK   71  A    between atoms: _175  and  _177
REMARK   72  A    between atoms: _177  and  _178
REMARK   73  A    between atoms: _177  and  _180
REMARK   74  A    between atoms: _180  and  _181
REMARK   75  A    between atoms: _183  and  _185
REMARK   76  A    between atoms: _185  and  _186
REMARK   77  A    between atoms: _188  and  _190
REMARK   78  A    between atoms: _190  and  _191
REMARK   79  A    between atoms: _190  and  _193
REMARK   80  A    between atoms: _193  and  _194
REMARK   81  A    between atoms: _197  and  _199
REMARK   82  A    between atoms: _199  and  _200
REMARK   83  A    between atoms: _199  and  _202
REMARK   84  A    between atoms: _205  and  _207
REMARK   85  A    between atoms: _207  and  _208
REMARK   86  A    between atoms: _207  and  _210
REMARK   87  A    between atoms: _210  and  _211
REMARK   88  A    between atoms: _217  and  _219
REMARK   89  A    between atoms: _219  and  _220
REMARK   90  A    between atoms: _219  and  _222
REMARK   91  A    between atoms: _222  and  _223
REMARK   92  A    between atoms: _226  and  _228
REMARK   93  A    between atoms: _228  and  _229
REMARK   94  A    between atoms: _228  and  _231
REMARK   95  A    between atoms: _231  and  _232
REMARK   96  A    between atoms: _237  and  _238
REMARK   97  A    between atoms: _240  and  _242
REMARK   98  A    between atoms: _242  and  _243
REMARK   99  A    between atoms: _242  and  _245
REMARK  100  A    between atoms: _245  and  _246
REMARK  101  A    between atoms: _248  and  _250
REMARK  102  A    between atoms: _250  and  _251
REMARK  103  A    between atoms: _250  and  _253
REMARK  104  A    between atoms: _253  and  _254
REMARK  105  A    between atoms: _260  and  _262
REMARK  106  A    between atoms: _262  and  _263
REMARK  107  A    between atoms: _265  and  _267
REMARK  108  A    between atoms: _267  and  _268
REMARK  109  A    between atoms: _267  and  _270
REMARK  110  A    between atoms: _270  and  _271
REMARK  111  A    between atoms: _274  and  _276
REMARK  112  A    between atoms: _276  and  _277
REMARK  113  A    between atoms: _276  and  _279
REMARK  114  A    between atoms: _279  and  _280
REMARK  115  A    between atoms: _283  and  _285
REMARK  116  A    between atoms: _285  and  _286
REMARK  117  A    between atoms: _285  and  _288
REMARK  118  A    between atoms: _288  and  _289
REMARK  119  A    between atoms: _292  and  _294
REMARK  120  A    between atoms: _294  and  _295
REMARK  121  A    between atoms: _297  and  _299
REMARK  122  A    between atoms: _299  and  _300
REMARK  123  A    between atoms: _299  and  _302
REMARK  124  A    between atoms: _302  and  _303
REMARK  125  A    between atoms: _313  and  _315
REMARK  126  A    between atoms: _315  and  _316
REMARK  127  A    between atoms: _315  and  _318
REMARK  128  A    between atoms: _318  and  _319
REMARK  129  A    between atoms: _322  and  _324
REMARK  130  A    between atoms: _324  and  _325
REMARK  131  A    between atoms: _324  and  _327
REMARK  132  A    between atoms: _327  and  _328
REMARK  133  A    between atoms: _331  and  _333
REMARK  134  A    between atoms: _333  and  _334
REMARK  135  A    between atoms: _333  and  _336
REMARK  136  A    between atoms: _336  and  _337
REMARK  137  A    between atoms: _339  and  _341
REMARK  138  A    between atoms: _341  and  _342
REMARK  139  A    between atoms: _341  and  _344
REMARK  140  A    between atoms: _344  and  _345
REMARK  141  A    between atoms: _348  and  _350
REMARK  142  A    between atoms: _350  and  _351
REMARK  143  A    between atoms: _350  and  _353
REMARK  144  A    between atoms: _353  and  _354
REMARK  145  A    between atoms: _357  and  _359
REMARK  146  A    between atoms: _359  and  _360
REMARK  147  A    between atoms: _359  and  _362
REMARK  148  A    between atoms: _362  and  _363
REMARK  149  A    between atoms: _368  and  _369
REMARK  150  A    between atoms: _371  and  _373
REMARK  151  A    between atoms: _373  and  _374
REMARK  152  A    between atoms: _373  and  _376
REMARK  153  A    between atoms: _376  and  _377
REMARK  154  A    between atoms: _387  and  _389
REMARK  155  A    between atoms: _389  and  _390
REMARK  156  A    between atoms: _389  and  _392
REMARK  157  A    between atoms: _392  and  _393
REMARK  158  A    between atoms: _398  and  _400
REMARK  159  A    between atoms: _400  and  _401
REMARK  160  A    between atoms: _400  and  _403
REMARK  161  A    between atoms: _403  and  _404
REMARK  162  A    between atoms: _407  and  _409
REMARK  163  A    between atoms: _409  and  _410
REMARK  164  A    between atoms: _409  and  _412
REMARK  165  A    between atoms: _415  and  _417
REMARK  166  A    between atoms: _417  and  _418
REMARK  167  A    between atoms: _417  and  _420
REMARK  168  A    between atoms: _420  and  _421
REMARK  169  A    between atoms: _424  and  _426
REMARK  170  A    between atoms: _426  and  _427
REMARK  171  A    between atoms: _426  and  _429
REMARK  172  A    between atoms: _429  and  _430
REMARK  173  A    between atoms: _432  and  _434
REMARK  174  A    between atoms: _434  and  _435
REMARK  175  A    between atoms: _437  and  _439
REMARK  176  A    between atoms: _439  and  _440
REMARK  177  A    between atoms: _439  and  _442
REMARK  178  A    between atoms: _442  and  _443
REMARK  179  A    between atoms: _446  and  _448
REMARK  180  A    between atoms: _448  and  _449
REMARK  181  A    between atoms: _448  and  _451
REMARK  182  A    between atoms: _451  and  _452
REMARK  183  A    between atoms: _454  and  _456
REMARK  184  A    between atoms: _456  and  _457
REMARK  185  A    between atoms: _460  and  _462
REMARK  186  A    between atoms: _462  and  _463
REMARK  187  A    between atoms: _462  and  _465
REMARK  188  A    between atoms: _465  and  _466
REMARK  189  A    between atoms: _469  and  _471
REMARK  190  A    between atoms: _471  and  _472
REMARK  191  A    between atoms: _471  and  _474
REMARK  192  A    between atoms: _474  and  _475
REMARK  193  A    between atoms: _478  and  _480
REMARK  194  A    between atoms: _480  and  _481
REMARK  195  A    between atoms: _480  and  _483
REMARK  196  A    between atoms: _487  and  _488
REMARK  197  A    between atoms: _493  and  _495
REMARK  198  A    between atoms: _495  and  _496
REMARK  199  A    between atoms: _495  and  _498
REMARK  200  A    between atoms: _498  and  _499
REMARK  201  A    between atoms: _504  and  _506
REMARK  202  A    between atoms: _506  and  _507
REMARK  203  A    between atoms: _506  and  _509
REMARK  204  A    between atoms: _509  and  _510
REMARK  205  A    between atoms: _513  and  _515
REMARK  206  A    between atoms: _515  and  _516
REMARK  207  A    between atoms: _515  and  _518
REMARK  208  A    between atoms: _518  and  _519
REMARK  209  A    between atoms: _522  and  _524
REMARK  210  A    between atoms: _524  and  _525
REMARK  211  A    between atoms: _524  and  _527
REMARK  212  A    between atoms: _527  and  _528
REMARK  213  A    between atoms: _531  and  _533
REMARK  214  A    between atoms: _533  and  _534
REMARK  215  A    between atoms: _533  and  _536
REMARK  216  A    between atoms: _536  and  _537
REMARK  217  A    between atoms: _543  and  _545
REMARK  218  A    between atoms: _545  and  _546
REMARK  219  A    between atoms: _545  and  _548
REMARK  220  A    between atoms: _548  and  _549
REMARK  221  A    between atoms: _552  and  _554
REMARK  222  A    between atoms: _554  and  _555
REMARK  223  A    between atoms: _554  and  _557
REMARK  224  A    between atoms: _557  and  _558
REMARK  225  A    between atoms: _564  and  _566
REMARK  226  A    between atoms: _566  and  _567
REMARK  227  A    between atoms: _566  and  _569
REMARK  228  A    between atoms: _569  and  _570
REMARK  229  A    between atoms: _573  and  _575
REMARK  230  A    between atoms: _575  and  _576
REMARK  231  A    between atoms: _575  and  _578
REMARK  232  A    between atoms: _578  and  _579
REMARK  233  A    between atoms: _582  and  _584
REMARK  234  A    between atoms: _584  and  _585
REMARK  235  A    between atoms: _587  and  _589
REMARK  236  A    between atoms: _589  and  _590
REMARK  237  A    between atoms: _589  and  _592
REMARK  238  A    between atoms: _592  and  _593
REMARK                            x       y       z     vdW  Elec       q    Type
REMARK                         _______ _______ _______ _____ _____    ______ ____
ROOT
ATOM      1  C   GLY A   2      29.155  34.885  24.838  0.00  0.00    +0.243 C 
ATOM      2  O   GLY A   2      28.164  34.681  25.498  0.00  0.00    -0.273 OA
ATOM      3  N   TRP A   3      29.937  35.927  25.065  0.00  0.00    -0.298 N 
ATOM      4  H   TRP A   3      30.789  36.079  24.488  0.00  0.00    +0.150 HD
ENDROOT
BRANCH   1   5
ATOM      5  CA  GLY A   2      29.538  33.929  23.736  0.00  0.00    +0.176 C 
BRANCH   5   8
ATOM      6  C   LEU A   1      28.097  31.994  23.770  0.00  0.00    +0.238 C 
ATOM      7  O   LEU A   1      28.840  31.416  24.544  0.00  0.00    -0.274 OA
ATOM      8  N   GLY A   2      28.400  33.177  23.264  0.00  0.00    -0.296 N 
ATOM      9  H   GLY A   2      27.805  33.575  22.509  0.00  0.00    +0.150 HD
BRANCH   6  10
ATOM     10  CA  LEU A   1      26.859  31.286  23.202  0.00  0.00    +0.145 C 
BRANCH  10  11
ATOM     11  N   LEU A   1      26.511  31.682  21.841  0.00  0.00    -0.238 NA
ATOM     12  H   LEU A   1      27.275  31.694  21.135  0.00  0.00    +0.142 HD
ENDBRANCH  10  11
BRANCH  10  13
ATOM     13  CB  LEU A   1      27.053  29.751  23.242  0.00  0.00    +0.026 C 
BRANCH  13  14
ATOM     14  CG  LEU A   1      25.822  28.851  23.030  0.00  0.00    +0.002 C 
ATOM     15  CD2 LEU A   1      24.853  28.831  24.280  0.00  0.00    +0.000 C 
ATOM     16  CD1 LEU A   1      26.233  27.471  22.579  0.00  0.00    +0.000 C 
ENDBRANCH  13  14
ENDBRANCH  10  13
ENDBRANCH   6  10
ENDBRANCH   5   8
ENDBRANCH   1   5
BRANCH   3  17
ATOM     17  CA  TRP A   3      29.598  36.853  26.121  0.00  0.00    +0.141 C 
BRANCH  17  18
ATOM     18  C   TRP A   3      28.669  37.939  25.693  0.00  0.00    +0.227 C 
ATOM     19  O   TRP A   3      28.550  38.259  24.507  0.00  0.00    -0.286 OA
ENDBRANCH  17  18
BRANCH  17  20
ATOM     20  CB  TRP A   3      30.851  37.418  26.741  0.00  0.00    +0.056 C 
BRANCH  20  21
ATOM     21  CG  TRP A   3      31.573  36.367  27.515  0.00  0.00    -0.002 A 
ATOM     22  CD2 TRP A   3      31.644  36.223  28.944  0.00  0.00    +0.013 A 
ATOM     23  CE3 TRP A   3      31.164  36.969  30.024  0.00  0.00    +0.001 A 
ATOM     24  CZ3 TRP A   3      31.467  36.506  31.341  0.00  0.00    +0.000 A 
ATOM     25  CH2 TRP A   3      32.212  35.327  31.543  0.00  0.00    +0.001 A 
ATOM     26  CZ2 TRP A   3      32.669  34.598  30.507  0.00  0.00    +0.017 A 
ATOM     27  CE2 TRP A   3      32.378  35.061  29.202  0.00  0.00    +0.056 A 
ATOM     28  NE1 TRP A   3      32.731  34.543  27.985  0.00  0.00    -0.352 N 
ATOM     29  HE1 TRP A   3      33.286  33.676  27.838  0.00  0.00    +0.166 HD
ATOM     30  CD1 TRP A   3      32.244  35.336  27.005  0.00  0.00    +0.068 A 
ENDBRANCH  20  21
ENDBRANCH  17  20
ENDBRANCH   3  17
TORSDOF 10
REMARK  Name = ../refined-set-2016/1lee/1lee_pocket.pdb
REMARK  238 active torsions:
REMARK  status: ('A' for Active; 'I' for Inactive)
REMARK    1  A    between atoms: _1  and  _3
REMARK    2  A    between atoms: _3  and  _4
REMARK    3  A    between atoms: _3  and  _6
REMARK    4  A    between atoms: _6  and  _7
REMARK    5  A    between atoms: _10  and  _12
REMARK    6  A    between atoms: _12  and  _13
REMARK    7  A    between atoms: _12  and  _15
REMARK    8  A    between atoms: _16  and  _17
REMARK    9  A    between atoms: _19  and  _21
REMARK   10  A    between atoms: _21  and  _22
REMARK   11  A    between atoms: _21  and  _24
REMARK   12  A    between atoms: _24  and  _25
REMARK   13  A    between atoms: _30  and  _31
REMARK   14  A    between atoms: _33  and  _35
REMARK   15  A    between atoms: _35  and  _36
REMARK   16  A    between atoms: _35  and  _38
REMARK   17  A    between atoms: _38  and  _39
REMARK   18  A    between atoms: _42  and  _44
REMARK   19  A    between atoms: _44  and  _45
REMARK   20  A    between atoms: _44  and  _47
REMARK   21  A    between atoms: _47  and  _48
REMARK   22  A    between atoms: _51  and  _53
REMARK   23  A    between atoms: _53  and  _54
REMARK   24  A    between atoms: _53  and  _56
REMARK   25  A    between atoms: _56  and  _57
REMARK   26  A    between atoms: _60  and  _62
REMARK   27  A    between atoms: _62  and  _63
REMARK   28  A    between atoms: _62  and  _65
REMARK   29  A    between atoms: _65  and  _66
REMARK   30  A    between atoms: _69  and  _71
REMARK   31  A    between atoms: _71  and  _72
REMARK   32  A    between atoms: _74  and  _76
REMARK   33  A    between atoms: _76  and  _77
REMARK   34  A    between atoms: _76  and  _79
REMARK   35  A    between atoms: _79  and  _80
REMARK   36  A    between atoms: _82  and  _84
REMARK   37  A    between atoms: _84  and  _85
REMARK   38  A    between atoms: _88  and  _90
REMARK   39  A    between atoms: _90  and  _91
REMARK   40  A    between atoms: _90  and  _93
REMARK   41  A    between atoms: _93  and  _94
REMARK   42  A    between atoms: _99  and  _101
REMARK   43  A    between atoms: _101  and  _102
REMARK   44  A    between atoms: _101  and  _104
REMARK   45  A    between atoms: _104  and  _105
REMARK   46  A    between atoms: _115  and  _117
REMARK   47  A    between atoms: _117  and  _118
REMARK   48  A    between atoms: _117  and  _120
REMARK   49  A    between atoms: _123  and  _125
REMARK   50  A    between atoms: _125  and  _126
REMARK   51  A    between atoms: _125  and  _128
REMARK   52  A    between atoms: _128  and  _129
REMARK   53  A    between atoms: _129  and  _130
REMARK   54  A    between atoms: _133  and  _135
REMARK   55  A    between atoms: _135  and  _136
REMARK   56  A    between atoms: _135  and  _138
REMARK   57  A    between atoms: _138  and  _139
REMARK   58  A    between atoms: _139  and  _140
REMARK   59  A    between atoms: _142  and  _144
REMARK   60  A    between atoms: _144  and  _145
REMARK   61  A    between atoms: _144  and  _147
REMARK   62  A    between atoms: _147  and  _148
REMARK   63  A    between atoms: _153  and  _155
REMARK   64  A    between atoms: _155  and  _156
REMARK   65  A    between atoms: _155  and  _158
REMARK   66  A    between atoms: _158  and  _159
REMARK   67  A    between atoms: _164  and  _165
REMARK   68  A    between atoms: _167  and  _169
REMARK   69  A    between atoms: _169  and  _170
REMARK   70  A    between atoms: _169  and  _172
REMARK   71  A    between atoms: _175  and  _177
REMARK   72  A    between atoms: _177  and  _178
REMARK   73  A    between atoms: _177  and  _180
REMARK   74  A    between atoms: _180  and  _181
REMARK   75  A    between atoms: _183  and  _185
REMARK   76  A    between atoms: _185  and  _186
REMARK   77  A    between atoms: _188  and  _190
REMARK   78  A    between atoms: _190  and  _191
REMARK   79  A    between atoms: _190  and  _193
REMARK   80  A    between atoms: _193  and  _194
REMARK   81  A    between atoms: _197  and  _199
REMARK   82  A    between atoms: _199  and  _200
REMARK   83  A    between atoms: _199  and  _202
REMARK   84  A    between atoms: _205  and  _207
REMARK   85  A    between atoms: _207  and  _208
REMARK   86  A    between atoms: _207  and  _210
REMARK   87  A    between atoms: _210  and  _211
REMARK   88  A    between atoms: _217  and  _219
REMARK   89  A    between atoms: _219  and  _220
REMARK   90  A    between atoms: _219  and  _222
REMARK   91  A    between atoms: _222  and  _223
REMARK   92  A    between atoms: _226  and  _228
REMARK   93  A    between atoms: _228  and  _229
REMARK   94  A    between atoms: _228  and  _231
REMARK   95  A    between atoms: _231  and  _232
REMARK   96  A    between atoms: _237  and  _238
REMARK   97  A    between atoms: _240  and  _242
REMARK   98  A    between atoms: _242  and  _243
REMARK   99  A    between atoms: _242  and  _245
REMARK  100  A    between atoms: _245  and  _246
REMARK  101  A    between atoms: _248  and  _250
REMARK  102  A    between atoms: _250  and  _251
REMARK  103  A    between atoms: _250  and  _253
REMARK  104  A    between atoms: _253  and  _254
REMARK  105  A    between atoms: _260  and  _262
REMARK  106  A    between atoms: _262  and  _263
REMARK  107  A    between atoms: _265  and  _267
REMARK  108  A    between atoms: _267  and  _268
REMARK  109  A    between atoms: _267  and  _270
REMARK  110  A    between atoms: _270  and  _271
REMARK  111  A    between atoms: _274  and  _276
REMARK  112  A    between atoms: _276  and  _277
REMARK  113  A    between atoms: _276  and  _279
REMARK  114  A    between atoms: _279  and  _280
REMARK  115  A    between atoms: _283  and  _285
REMARK  116  A    between atoms: _285  and  _286
REMARK  117  A    between atoms: _285  and  _288
REMARK  118  A    between atoms: _288  and  _289
REMARK  119  A    between atoms: _292  and  _294
REMARK  120  A    between atoms: _294  and  _295
REMARK  121  A    between atoms: _297  and  _299
REMARK  122  A    between atoms: _299  and  _300
REMARK  123  A    between atoms: _299  and  _302
REMARK  124  A    between atoms: _302  and  _303
REMARK  125  A    between atoms: _313  and  _315
REMARK  126  A    between atoms: _315  and  _316
REMARK  127  A    between atoms: _315  and  _318
REMARK  128  A    between atoms: _318  and  _319
REMARK  129  A    between atoms: _322  and  _324
REMARK  130  A    between atoms: _324  and  _325
REMARK  131  A    between atoms: _324  and  _327
REMARK  132  A    between atoms: _327  and  _328
REMARK  133  A    between atoms: _331  and  _333
REMARK  134  A    between atoms: _333  and  _334
REMARK  135  A    between atoms: _333  and  _336
REMARK  136  A    between atoms: _336  and  _337
REMARK  137  A    between atoms: _339  and  _341
REMARK  138  A    between atoms: _341  and  _342
REMARK  139  A    between atoms: _341  and  _344
REMARK  140  A    between atoms: _344  and  _345
REMARK  141  A    between atoms: _348  and  _350
REMARK  142  A    between atoms: _350  and  _351
REMARK  143  A    between atoms: _350  and  _353
REMARK  144  A    between atoms: _353  and  _354
REMARK  145  A    between atoms: _357  and  _359
REMARK  146  A    between atoms: _359  and  _360
REMARK  147  A    between atoms: _359  and  _362
REMARK  148  A    between atoms: _362  and  _363
REMARK  149  A    between atoms: _368  and  _369
REMARK  150  A    between atoms: _371  and  _373
REMARK  151  A    between atoms: _373  and  _374
REMARK  152  A    between atoms: _373  and  _376
REMARK  153  A    between atoms: _376  and  _377
REMARK  154  A    between atoms: _387  and  _389
REMARK  155  A    between atoms: _389  and  _390
REMARK  156  A    between atoms: _389  and  _392
REMARK  157  A    between atoms: _392  and  _393
REMARK  158  A    between atoms: _398  and  _400
REMARK  159  A    between atoms: _400  and  _401
REMARK  160  A    between atoms: _400  and  _403
REMARK  161  A    between atoms: _403  and  _404
REMARK  162  A    between atoms: _407  and  _409
REMARK  163  A    between atoms: _409  and  _410
REMARK  164  A    between atoms: _409  and  _412
REMARK  165  A    between atoms: _415  and  _417
REMARK  166  A    between atoms: _417  and  _418
REMARK  167  A    between atoms: _417  and  _420
REMARK  168  A    between atoms: _420  and  _421
REMARK  169  A    between atoms: _424  and  _426
REMARK  170  A    between atoms: _426  and  _427
REMARK  171  A    between atoms: _426  and  _429
REMARK  172  A    between atoms: _429  and  _430
REMARK  173  A    between atoms: _432  and  _434
REMARK  174  A    between atoms: _434  and  _435
REMARK  175  A    between atoms: _437  and  _439
REMARK  176  A    between atoms: _439  and  _440
REMARK  177  A    between atoms: _439  and  _442
REMARK  178  A    between atoms: _442  and  _443
REMARK  179  A    between atoms: _446  and  _448
REMARK  180  A    between atoms: _448  and  _449
REMARK  181  A    between atoms: _448  and  _451
REMARK  182  A    between atoms: _451  and  _452
REMARK  183  A    between atoms: _454  and  _456
REMARK  184  A    between atoms: _456  and  _457
REMARK  185  A    between atoms: _460  and  _462
REMARK  186  A    between atoms: _462  and  _463
REMARK  187  A    between atoms: _462  and  _465
REMARK  188  A    between atoms: _465  and  _466
REMARK  189  A    between atoms: _469  and  _471
REMARK  190  A    between atoms: _471  and  _472
REMARK  191  A    between atoms: _471  and  _474
REMARK  192  A    between atoms: _474  and  _475
REMARK  193  A    between atoms: _478  and  _480
REMARK  194  A    between atoms: _480  and  _481
REMARK  195  A    between atoms: _480  and  _483
REMARK  196  A    between atoms: _487  and  _488
REMARK  197  A    between atoms: _493  and  _495
REMARK  198  A    between atoms: _495  and  _496
REMARK  199  A    between atoms: _495  and  _498
REMARK  200  A    between atoms: _498  and  _499
REMARK  201  A    between atoms: _504  and  _506
REMARK  202  A    between atoms: _506  and  _507
REMARK  203  A    between atoms: _506  and  _509
REMARK  204  A    between atoms: _509  and  _510
REMARK  205  A    between atoms: _513  and  _515
REMARK  206  A    between atoms: _515  and  _516
REMARK  207  A    between atoms: _515  and  _518
REMARK  208  A    between atoms: _518  and  _519
REMARK  209  A    between atoms: _522  and  _524
REMARK  210  A    between atoms: _524  and  _525
REMARK  211  A    between atoms: _524  and  _527
REMARK  212  A    between atoms: _527  and  _528
REMARK  213  A    between atoms: _531  and  _533
REMARK  214  A    between atoms: _533  and  _534
REMARK  215  A    between atoms: _533  and  _536
REMARK  216  A    between atoms: _536  and  _537
REMARK  217  A    between atoms: _543  and  _545
REMARK  218  A    between atoms: _545  and  _546
REMARK  219  A    between atoms: _545  and  _548
REMARK  220  A    between atoms: _548  and  _549
REMARK  221  A    between atoms: _552  and  _554
REMARK  222  A    between atoms: _554  and  _555
REMARK  223  A    between atoms: _554  and  _557
REMARK  224  A    between atoms: _557  and  _558
REMARK  225  A    between atoms: _564  and  _566
REMARK  226  A    between atoms: _566  and  _567
REMARK  227  A    between atoms: _566  and  _569
REMARK  228  A    between atoms: _569  and  _570
REMARK  229  A    between atoms: _573  and  _575
REMARK  230  A    between atoms: _575  and  _576
REMARK  231  A    between atoms: _575  and  _578
REMARK  232  A    between atoms: _578  and  _579
REMARK  233  A    between atoms: _582  and  _584
REMARK  234  A    between atoms: _584  and  _585
REMARK  235  A    between atoms: _587  and  _589
REMARK  236  A    between atoms: _589  and  _590
REMARK  237  A    between atoms: _589  and  _592
REMARK  238  A    between atoms: _592  and  _593
REMARK                            x       y       z     vdW  Elec       q    Type
REMARK                         _______ _______ _______ _____ _____    ______ ____
ROOT
ATOM      1  C   LEU A   2      28.584  40.223  21.100  0.00  0.00    +0.241 C 
ATOM      2  N   SER A   3      27.509  40.549  21.788  0.00  0.00    -0.295 N 
ATOM      3  H   SER A   3      27.574  40.769  22.802  0.00  0.00    +0.150 HD
ATOM      4  O   LEU A   2      28.519  40.058  19.869  0.00  0.00    -0.273 OA
ENDROOT
BRANCH   2   5
ATOM      5  CA  SER A   3      26.234  40.594  21.100  0.00  0.00    +0.178 C 
BRANCH   5   6
ATOM      6  C   SER A   3      25.783  41.916  20.526  0.00  0.00    +0.243 C 
ATOM      7  O   SER A   3      26.284  42.999  20.858  0.00  0.00    -0.273 OA
ATOM      8  N   ILE A   4      24.882  41.833  19.560  0.00  0.00    -0.298 N 
ATOM      9  H   ILE A   4      24.599  40.913  19.165  0.00  0.00    +0.150 HD
BRANCH   8  10
ATOM     10  CA  ILE A   4      24.308  43.062  19.075  0.00  0.00    +0.137 C 
BRANCH  10  11
ATOM     11  CB  ILE A   4      23.788  42.930  17.578  0.00  0.00    +0.026 C 
ATOM     12  CG2 ILE A   4      22.982  44.196  17.153  0.00  0.00    +0.002 C 
BRANCH  11  13
ATOM     13  CG1 ILE A   4      24.953  42.602  16.607  0.00  0.00    +0.002 C 
ATOM     14  CD1 ILE A   4      24.551  42.574  15.098  0.00  0.00    +0.000 C 
ENDBRANCH  11  13
ENDBRANCH  10  11
BRANCH  10  15
ATOM     15  C   ILE A   4      23.103  43.237  20.069  0.00  0.00    +0.227 C 
ATOM     16  O   ILE A   4      22.373  42.279  20.394  0.00  0.00    -0.286 OA
ENDBRANCH  10  15
ENDBRANCH   8  10
ENDBRANCH   5   6
BRANCH   5  17
ATOM     17  CB  SER A   3      25.125  40.098  22.034  0.00  0.00    +0.166 C 
BRANCH  17  18
ATOM     18  OG  SER A   3      24.790  41.145  22.932  0.00  0.00    -0.380 OA
ATOM     19  H   SER A   3      25.590  41.395  23.459  0.00  0.00    +0.211 HD
ENDBRANCH  17  18
ENDBRANCH   5  17
ENDBRANCH   2   5
BRANCH   1  20
ATOM     20  CA  LEU A   2      29.922  40.107  21.878  0.00  0.00    +0.149 C 
BRANCH  20  22
ATOM     21  C   ASP A   1      29.728  41.847  23.543  0.00  0.00    +0.239 C 
ATOM     22  N   LEU A   2      29.700  40.557  23.235  0.00  0.00    -0.297 N 
ATOM     23  H   LEU A   2      29.515  39.857  23.982  0.00  0.00    +0.150 HD
ATOM     24  O   ASP A   1      30.057  42.703  22.744  0.00  0.00    -0.274 OA
BRANCH  21  25
ATOM     25  CA  ASP A   1      29.423  42.222  25.008  0.00  0.00    +0.156 C 
BRANCH  25  26
ATOM     26  N   ASP A   1      28.826  41.162  25.828  0.00  0.00    -0.238 NA
ATOM     27  H   ASP A   1      29.358  40.763  26.628  0.00  0.00    +0.142 HD
ENDBRANCH  25  26
BRANCH  25  28
ATOM     28  CB  ASP A   1      30.678  42.755  25.670  0.00  0.00    +0.140 C 
BRANCH  28  29
ATOM     29  CG  ASP A   1      30.379  43.743  26.751  0.00  0.00    +0.367 C 
ATOM     30  OD2 ASP A   1      31.349  44.256  27.320  0.00  0.00    -0.246 OA
ATOM     31  OD1 ASP A   1      29.185  44.016  27.029  0.00  0.00    -0.246 OA
ENDBRANCH  28  29
ENDBRANCH  25  28
ENDBRANCH  21  25
ENDBRANCH  20  22
BRANCH  20  32
ATOM     32  CB  LEU A   2      30.407  38.660  21.896  0.00  0.00    +0.029 C 
BRANCH  32  33
ATOM     33  CG  LEU A   2      30.793  38.029  20.561  0.00  0.00    +0.002 C 
ATOM     34  CD2 LEU A   2      31.226  36.647  20.752  0.00  0.00    +0.000 C 
ATOM     35  CD1 LEU A   2      31.903  38.861  19.934  0.00  0.00    +0.000 C 
ENDBRANCH  32  33
ENDBRANCH  20  32
ENDBRANCH   1  20
TORSDOF 16
REMARK  Name = ../refined-set-2016/1lee/1lee_pocket.pdb
REMARK  238 active torsions:
REMARK  status: ('A' for Active; 'I' for Inactive)
REMARK    1  A    between atoms: _1  and  _3
REMARK    2  A    between atoms: _3  and  _4
REMARK    3  A    between atoms: _3  and  _6
REMARK    4  A    between atoms: _6  and  _7
REMARK    5  A    between atoms: _10  and  _12
REMARK    6  A    between atoms: _12  and  _13
REMARK    7  A    between atoms: _12  and  _15
REMARK    8  A    between atoms: _16  and  _17
REMARK    9  A    between atoms: _19  and  _21
REMARK   10  A    between atoms: _21  and  _22
REMARK   11  A    between atoms: _21  and  _24
REMARK   12  A    between atoms: _24  and  _25
REMARK   13  A    between atoms: _30  and  _31
REMARK   14  A    between atoms: _33  and  _35
REMARK   15  A    between atoms: _35  and  _36
REMARK   16  A    between atoms: _35  and  _38
REMARK   17  A    between atoms: _38  and  _39
REMARK   18  A    between atoms: _42  and  _44
REMARK   19  A    between atoms: _44  and  _45
REMARK   20  A    between atoms: _44  and  _47
REMARK   21  A    between atoms: _47  and  _48
REMARK   22  A    between atoms: _51  and  _53
REMARK   23  A    between atoms: _53  and  _54
REMARK   24  A    between atoms: _53  and  _56
REMARK   25  A    between atoms: _56  and  _57
REMARK   26  A    between atoms: _60  and  _62
REMARK   27  A    between atoms: _62  and  _63
REMARK   28  A    between atoms: _62  and  _65
REMARK   29  A    between atoms: _65  and  _66
REMARK   30  A    between atoms: _69  and  _71
REMARK   31  A    between atoms: _71  and  _72
REMARK   32  A    between atoms: _74  and  _76
REMARK   33  A    between atoms: _76  and  _77
REMARK   34  A    between atoms: _76  and  _79
REMARK   35  A    between atoms: _79  and  _80
REMARK   36  A    between atoms: _82  and  _84
REMARK   37  A    between atoms: _84  and  _85
REMARK   38  A    between atoms: _88  and  _90
REMARK   39  A    between atoms: _90  and  _91
REMARK   40  A    between atoms: _90  and  _93
REMARK   41  A    between atoms: _93  and  _94
REMARK   42  A    between atoms: _99  and  _101
REMARK   43  A    between atoms: _101  and  _102
REMARK   44  A    between atoms: _101  and  _104
REMARK   45  A    between atoms: _104  and  _105
REMARK   46  A    between atoms: _115  and  _117
REMARK   47  A    between atoms: _117  and  _118
REMARK   48  A    between atoms: _117  and  _120
REMARK   49  A    between atoms: _123  and  _125
REMARK   50  A    between atoms: _125  and  _126
REMARK   51  A    between atoms: _125  and  _128
REMARK   52  A    between atoms: _128  and  _129
REMARK   53  A    between atoms: _129  and  _130
REMARK   54  A    between atoms: _133  and  _135
REMARK   55  A    between atoms: _135  and  _136
REMARK   56  A    between atoms: _135  and  _138
REMARK   57  A    between atoms: _138  and  _139
REMARK   58  A    between atoms: _139  and  _140
REMARK   59  A    between atoms: _142  and  _144
REMARK   60  A    between atoms: _144  and  _145
REMARK   61  A    between atoms: _144  and  _147
REMARK   62  A    between atoms: _147  and  _148
REMARK   63  A    between atoms: _153  and  _155
REMARK   64  A    between atoms: _155  and  _156
REMARK   65  A    between atoms: _155  and  _158
REMARK   66  A    between atoms: _158  and  _159
REMARK   67  A    between atoms: _164  and  _165
REMARK   68  A    between atoms: _167  and  _169
REMARK   69  A    between atoms: _169  and  _170
REMARK   70  A    between atoms: _169  and  _172
REMARK   71  A    between atoms: _175  and  _177
REMARK   72  A    between atoms: _177  and  _178
REMARK   73  A    between atoms: _177  and  _180
REMARK   74  A    between atoms: _180  and  _181
REMARK   75  A    between atoms: _183  and  _185
REMARK   76  A    between atoms: _185  and  _186
REMARK   77  A    between atoms: _188  and  _190
REMARK   78  A    between atoms: _190  and  _191
REMARK   79  A    between atoms: _190  and  _193
REMARK   80  A    between atoms: _193  and  _194
REMARK   81  A    between atoms: _197  and  _199
REMARK   82  A    between atoms: _199  and  _200
REMARK   83  A    between atoms: _199  and  _202
REMARK   84  A    between atoms: _205  and  _207
REMARK   85  A    between atoms: _207  and  _208
REMARK   86  A    between atoms: _207  and  _210
REMARK   87  A    between atoms: _210  and  _211
REMARK   88  A    between atoms: _217  and  _219
REMARK   89  A    between atoms: _219  and  _220
REMARK   90  A    between atoms: _219  and  _222
REMARK   91  A    between atoms: _222  and  _223
REMARK   92  A    between atoms: _226  and  _228
REMARK   93  A    between atoms: _228  and  _229
REMARK   94  A    between atoms: _228  and  _231
REMARK   95  A    between atoms: _231  and  _232
REMARK   96  A    between atoms: _237  and  _238
REMARK   97  A    between atoms: _240  and  _242
REMARK   98  A    between atoms: _242  and  _243
REMARK   99  A    between atoms: _242  and  _245
REMARK  100  A    between atoms: _245  and  _246
REMARK  101  A    between atoms: _248  and  _250
REMARK  102  A    between atoms: _250  and  _251
REMARK  103  A    between atoms: _250  and  _253
REMARK  104  A    between atoms: _253  and  _254
REMARK  105  A    between atoms: _260  and  _262
REMARK  106  A    between atoms: _262  and  _263
REMARK  107  A    between atoms: _265  and  _267
REMARK  108  A    between atoms: _267  and  _268
REMARK  109  A    between atoms: _267  and  _270
REMARK  110  A    between atoms: _270  and  _271
REMARK  111  A    between atoms: _274  and  _276
REMARK  112  A    between atoms: _276  and  _277
REMARK  113  A    between atoms: _276  and  _279
REMARK  114  A    between atoms: _279  and  _280
REMARK  115  A    between atoms: _283  and  _285
REMARK  116  A    between atoms: _285  and  _286
REMARK  117  A    between atoms: _285  and  _288
REMARK  118  A    between atoms: _288  and  _289
REMARK  119  A    between atoms: _292  and  _294
REMARK  120  A    between atoms: _294  and  _295
REMARK  121  A    between atoms: _297  and  _299
REMARK  122  A    between atoms: _299  and  _300
REMARK  123  A    between atoms: _299  and  _302
REMARK  124  A    between atoms: _302  and  _303
REMARK  125  A    between atoms: _313  and  _315
REMARK  126  A    between atoms: _315  and  _316
REMARK  127  A    between atoms: _315  and  _318
REMARK  128  A    between atoms: _318  and  _319
REMARK  129  A    between atoms: _322  and  _324
REMARK  130  A    between atoms: _324  and  _325
REMARK  131  A    between atoms: _324  and  _327
REMARK  132  A    between atoms: _327  and  _328
REMARK  133  A    between atoms: _331  and  _333
REMARK  134  A    between atoms: _333  and  _334
REMARK  135  A    between atoms: _333  and  _336
REMARK  136  A    between atoms: _336  and  _337
REMARK  137  A    between atoms: _339  and  _341
REMARK  138  A    between atoms: _341  and  _342
REMARK  139  A    between atoms: _341  and  _344
REMARK  140  A    between atoms: _344  and  _345
REMARK  141  A    between atoms: _348  and  _350
REMARK  142  A    between atoms: _350  and  _351
REMARK  143  A    between atoms: _350  and  _353
REMARK  144  A    between atoms: _353  and  _354
REMARK  145  A    between atoms: _357  and  _359
REMARK  146  A    between atoms: _359  and  _360
REMARK  147  A    between atoms: _359  and  _362
REMARK  148  A    between atoms: _362  and  _363
REMARK  149  A    between atoms: _368  and  _369
REMARK  150  A    between atoms: _371  and  _373
REMARK  151  A    between atoms: _373  and  _374
REMARK  152  A    between atoms: _373  and  _376
REMARK  153  A    between atoms: _376  and  _377
REMARK  154  A    between atoms: _387  and  _389
REMARK  155  A    between atoms: _389  and  _390
REMARK  156  A    between atoms: _389  and  _392
REMARK  157  A    between atoms: _392  and  _393
REMARK  158  A    between atoms: _398  and  _400
REMARK  159  A    between atoms: _400  and  _401
REMARK  160  A    between atoms: _400  and  _403
REMARK  161  A    between atoms: _403  and  _404
REMARK  162  A    between atoms: _407  and  _409
REMARK  163  A    between atoms: _409  and  _410
REMARK  164  A    between atoms: _409  and  _412
REMARK  165  A    between atoms: _415  and  _417
REMARK  166  A    between atoms: _417  and  _418
REMARK  167  A    between atoms: _417  and  _420
REMARK  168  A    between atoms: _420  and  _421
REMARK  169  A    between atoms: _424  and  _426
REMARK  170  A    between atoms: _426  and  _427
REMARK  171  A    between atoms: _426  and  _429
REMARK  172  A    between atoms: _429  and  _430
REMARK  173  A    between atoms: _432  and  _434
REMARK  174  A    between atoms: _434  and  _435
REMARK  175  A    between atoms: _437  and  _439
REMARK  176  A    between atoms: _439  and  _440
REMARK  177  A    between atoms: _439  and  _442
REMARK  178  A    between atoms: _442  and  _443
REMARK  179  A    between atoms: _446  and  _448
REMARK  180  A    between atoms: _448  and  _449
REMARK  181  A    between atoms: _448  and  _451
REMARK  182  A    between atoms: _451  and  _452
REMARK  183  A    between atoms: _454  and  _456
REMARK  184  A    between atoms: _456  and  _457
REMARK  185  A    between atoms: _460  and  _462
REMARK  186  A    between atoms: _462  and  _463
REMARK  187  A    between atoms: _462  and  _465
REMARK  188  A    between atoms: _465  and  _466
REMARK  189  A    between atoms: _469  and  _471
REMARK  190  A    between atoms: _471  and  _472
REMARK  191  A    between atoms: _471  and  _474
REMARK  192  A    between atoms: _474  and  _475
REMARK  193  A    between atoms: _478  and  _480
REMARK  194  A    between atoms: _480  and  _481
REMARK  195  A    between atoms: _480  and  _483
REMARK  196  A    between atoms: _487  and  _488
REMARK  197  A    between atoms: _493  and  _495
REMARK  198  A    between atoms: _495  and  _496
REMARK  199  A    between atoms: _495  and  _498
REMARK  200  A    between atoms: _498  and  _499
REMARK  201  A    between atoms: _504  and  _506
REMARK  202  A    between atoms: _506  and  _507
REMARK  203  A    between atoms: _506  and  _509
REMARK  204  A    between atoms: _509  and  _510
REMARK  205  A    between atoms: _513  and  _515
REMARK  206  A    between atoms: _515  and  _516
REMARK  207  A    between atoms: _515  and  _518
REMARK  208  A    between atoms: _518  and  _519
REMARK  209  A    between atoms: _522  and  _524
REMARK  210  A    between atoms: _524  and  _525
REMARK  211  A    between atoms: _524  and  _527
REMARK  212  A    between atoms: _527  and  _528
REMARK  213  A    between atoms: _531  and  _533
REMARK  214  A    between atoms: _533  and  _534
REMARK  215  A    between atoms: _533  and  _536
REMARK  216  A    between atoms: _536  and  _537
REMARK  217  A    between atoms: _543  and  _545
REMARK  218  A    between atoms: _545  and  _546
REMARK  219  A    between atoms: _545  and  _548
REMARK  220  A    between atoms: _548  and  _549
REMARK  221  A    between atoms: _552  and  _554
REMARK  222  A    between atoms: _554  and  _555
REMARK  223  A    between atoms: _554  and  _557
REMARK  224  A    between atoms: _557  and  _558
REMARK  225  A    between atoms: _564  and  _566
REMARK  226  A    between atoms: _566  and  _567
REMARK  227  A    between atoms: _566  and  _569
REMARK  228  A    between atoms: _569  and  _570
REMARK  229  A    between atoms: _573  and  _575
REMARK  230  A    between atoms: _575  and  _576
REMARK  231  A    between atoms: _575  and  _578
REMARK  232  A    between atoms: _578  and  _579
REMARK  233  A    between atoms: _582  and  _584
REMARK  234  A    between atoms: _584  and  _585
REMARK  235  A    between atoms: _587  and  _589
REMARK  236  A    between atoms: _589  and  _590
REMARK  237  A    between atoms: _589  and  _592
REMARK  238  A    between atoms: _592  and  _593
REMARK                            x       y       z     vdW  Elec       q    Type
REMARK                         _______ _______ _______ _____ _____    ______ ____
ROOT
ATOM      1  CA  TYR A   2      34.729  35.548  22.801  0.00  0.00    +0.153 C 
ENDROOT
BRANCH   1   4
ATOM      2  C   LEU A   1      33.642  37.385  24.080  0.00  0.00    +0.238 C 
ATOM      3  O   LEU A   1      32.541  36.863  24.163  0.00  0.00    -0.274 OA
ATOM      4  N   TYR A   2      34.681  36.889  23.390  0.00  0.00    -0.297 N 
ATOM      5  H   TYR A   2      35.512  37.501  23.264  0.00  0.00    +0.150 HD
BRANCH   2   6
ATOM      6  CA  LEU A   1      33.884  38.705  24.679  0.00  0.00    +0.145 C 
BRANCH   6   7
ATOM      7  N   LEU A   1      34.444  38.369  25.995  0.00  0.00    -0.238 NA
ATOM      8  H   LEU A   1      35.151  37.610  26.070  0.00  0.00    +0.142 HD
ENDBRANCH   6   7
BRANCH   6   9
ATOM      9  CB  LEU A   1      34.944  39.418  23.857  0.00  0.00    +0.026 C 
BRANCH   9  10
ATOM     10  CG  LEU A   1      34.809  40.904  23.945  0.00  0.00    +0.002 C 
ATOM     11  CD2 LEU A   1      33.472  41.247  23.311  0.00  0.00    +0.000 C 
ATOM     12  CD1 LEU A   1      35.989  41.544  23.213  0.00  0.00    +0.000 C 
ENDBRANCH   9  10
ENDBRANCH   6   9
ENDBRANCH   2   6
ENDBRANCH   1   4
BRANCH   1  13
ATOM     13  C   TYR A   2      35.241  34.673  23.952  0.00  0.00    +0.241 C 
ATOM     14  O   TYR A   2      35.735  35.165  24.950  0.00  0.00    -0.273 OA
ATOM     15  N   TRP A   3      35.221  33.377  23.752  0.00  0.00    -0.298 N 
ATOM     16  H   TRP A   3      34.783  32.994  22.890  0.00  0.00    +0.150 HD
BRANCH  15  17
ATOM     17  CA  TRP A   3      35.804  32.478  24.722  0.00  0.00    +0.141 C 
BRANCH  17  18
ATOM     18  C   TRP A   3      37.248  32.335  24.222  0.00  0.00    +0.227 C 
ATOM     19  O   TRP A   3      37.615  31.365  23.579  0.00  0.00    -0.286 OA
ENDBRANCH  17  18
BRANCH  17  20
ATOM     20  CB  TRP A   3      35.075  31.179  24.680  0.00  0.00    +0.056 C 
BRANCH  20  21
ATOM     21  CG  TRP A   3      33.692  31.354  25.214  0.00  0.00    -0.002 A 
ATOM     22  CD2 TRP A   3      33.320  31.319  26.587  0.00  0.00    +0.013 A 
ATOM     23  CE3 TRP A   3      34.046  31.213  27.783  0.00  0.00    +0.001 A 
ATOM     24  CZ3 TRP A   3      33.344  31.210  29.000  0.00  0.00    +0.000 A 
ATOM     25  CH2 TRP A   3      31.934  31.311  29.025  0.00  0.00    +0.001 A 
ATOM     26  CZ2 TRP A   3      31.194  31.416  27.862  0.00  0.00    +0.017 A 
ATOM     27  CE2 TRP A   3      31.900  31.419  26.646  0.00  0.00    +0.056 A 
ATOM     28  NE1 TRP A   3      31.441  31.515  25.358  0.00  0.00    -0.352 N 
ATOM     29  HE1 TRP A   3      30.445  31.594  25.071  0.00  0.00    +0.166 HD
ATOM     30  CD1 TRP A   3      32.532  31.488  24.504  0.00  0.00    +0.068 A 
ENDBRANCH  20  21
ENDBRANCH  17  20
ENDBRANCH  15  17
ENDBRANCH   1  13
BRANCH   1  31
ATOM     31  CB  TYR A   2      35.843  35.466  21.721  0.00  0.00    +0.055 C 
BRANCH  31  32
ATOM     32  CG  TYR A   2      35.535  36.127  20.411  0.00  0.00    -0.020 A 
ATOM     33  CD2 TYR A   2      35.952  37.421  20.149  0.00  0.00    -0.001 A 
ATOM     34  CE2 TYR A   2      35.560  38.069  18.969  0.00  0.00    +0.036 A 
ATOM     35  CZ  TYR A   2      34.753  37.383  18.057  0.00  0.00    +0.134 A 
ATOM     36  CE1 TYR A   2      34.354  36.092  18.296  0.00  0.00    +0.036 A 
ATOM     37  CD1 TYR A   2      34.735  35.468  19.462  0.00  0.00    -0.001 A 
BRANCH  35  38
ATOM     38  OH  TYR A   2      34.286  37.972  16.923  0.00  0.00    -0.506 OA
ATOM     39  HH  TYR A   2      34.640  38.894  16.862  0.00  0.00    +0.292 HD
ENDBRANCH  35  38
ENDBRANCH  31  32
ENDBRANCH   1  31
TORSDOF 13
REMARK  Name = ../refined-set-2016/1lee/1lee_pocket.pdb
REMARK  238 active torsions:
REMARK  status: ('A' for Active; 'I' for Inactive)
REMARK    1  A    between atoms: _1  and  _3
REMARK    2  A    between atoms: _3  and  _4
REMARK    3  A    between atoms: _3  and  _6
REMARK    4  A    between atoms: _6  and  _7
REMARK    5  A    between atoms: _10  and  _12
REMARK    6  A    between atoms: _12  and  _13
REMARK    7  A    between atoms: _12  and  _15
REMARK    8  A    between atoms: _16  and  _17
REMARK    9  A    between atoms: _19  and  _21
REMARK   10  A    between atoms: _21  and  _22
REMARK   11  A    between atoms: _21  and  _24
REMARK   12  A    between atoms: _24  and  _25
REMARK   13  A    between atoms: _30  and  _31
REMARK   14  A    between atoms: _33  and  _35
REMARK   15  A    between atoms: _35  and  _36
REMARK   16  A    between atoms: _35  and  _38
REMARK   17  A    between atoms: _38  and  _39
REMARK   18  A    between atoms: _42  and  _44
REMARK   19  A    between atoms: _44  and  _45
REMARK   20  A    between atoms: _44  and  _47
REMARK   21  A    between atoms: _47  and  _48
REMARK   22  A    between atoms: _51  and  _53
REMARK   23  A    between atoms: _53  and  _54
REMARK   24  A    between atoms: _53  and  _56
REMARK   25  A    between atoms: _56  and  _57
REMARK   26  A    between atoms: _60  and  _62
REMARK   27  A    between atoms: _62  and  _63
REMARK   28  A    between atoms: _62  and  _65
REMARK   29  A    between atoms: _65  and  _66
REMARK   30  A    between atoms: _69  and  _71
REMARK   31  A    between atoms: _71  and  _72
REMARK   32  A    between atoms: _74  and  _76
REMARK   33  A    between atoms: _76  and  _77
REMARK   34  A    between atoms: _76  and  _79
REMARK   35  A    between atoms: _79  and  _80
REMARK   36  A    between atoms: _82  and  _84
REMARK   37  A    between atoms: _84  and  _85
REMARK   38  A    between atoms: _88  and  _90
REMARK   39  A    between atoms: _90  and  _91
REMARK   40  A    between atoms: _90  and  _93
REMARK   41  A    between atoms: _93  and  _94
REMARK   42  A    between atoms: _99  and  _101
REMARK   43  A    between atoms: _101  and  _102
REMARK   44  A    between atoms: _101  and  _104
REMARK   45  A    between atoms: _104  and  _105
REMARK   46  A    between atoms: _115  and  _117
REMARK   47  A    between atoms: _117  and  _118
REMARK   48  A    between atoms: _117  and  _120
REMARK   49  A    between atoms: _123  and  _125
REMARK   50  A    between atoms: _125  and  _126
REMARK   51  A    between atoms: _125  and  _128
REMARK   52  A    between atoms: _128  and  _129
REMARK   53  A    between atoms: _129  and  _130
REMARK   54  A    between atoms: _133  and  _135
REMARK   55  A    between atoms: _135  and  _136
REMARK   56  A    between atoms: _135  and  _138
REMARK   57  A    between atoms: _138  and  _139
REMARK   58  A    between atoms: _139  and  _140
REMARK   59  A    between atoms: _142  and  _144
REMARK   60  A    between atoms: _144  and  _145
REMARK   61  A    between atoms: _144  and  _147
REMARK   62  A    between atoms: _147  and  _148
REMARK   63  A    between atoms: _153  and  _155
REMARK   64  A    between atoms: _155  and  _156
REMARK   65  A    between atoms: _155  and  _158
REMARK   66  A    between atoms: _158  and  _159
REMARK   67  A    between atoms: _164  and  _165
REMARK   68  A    between atoms: _167  and  _169
REMARK   69  A    between atoms: _169  and  _170
REMARK   70  A    between atoms: _169  and  _172
REMARK   71  A    between atoms: _175  and  _177
REMARK   72  A    between atoms: _177  and  _178
REMARK   73  A    between atoms: _177  and  _180
REMARK   74  A    between atoms: _180  and  _181
REMARK   75  A    between atoms: _183  and  _185
REMARK   76  A    between atoms: _185  and  _186
REMARK   77  A    between atoms: _188  and  _190
REMARK   78  A    between atoms: _190  and  _191
REMARK   79  A    between atoms: _190  and  _193
REMARK   80  A    between atoms: _193  and  _194
REMARK   81  A    between atoms: _197  and  _199
REMARK   82  A    between atoms: _199  and  _200
REMARK   83  A    between atoms: _199  and  _202
REMARK   84  A    between atoms: _205  and  _207
REMARK   85  A    between atoms: _207  and  _208
REMARK   86  A    between atoms: _207  and  _210
REMARK   87  A    between atoms: _210  and  _211
REMARK   88  A    between atoms: _217  and  _219
REMARK   89  A    between atoms: _219  and  _220
REMARK   90  A    between atoms: _219  and  _222
REMARK   91  A    between atoms: _222  and  _223
REMARK   92  A    between atoms: _226  and  _228
REMARK   93  A    between atoms: _228  and  _229
REMARK   94  A    between atoms: _228  and  _231
REMARK   95  A    between atoms: _231  and  _232
REMARK   96  A    between atoms: _237  and  _238
REMARK   97  A    between atoms: _240  and  _242
REMARK   98  A    between atoms: _242  and  _243
REMARK   99  A    between atoms: _242  and  _245
REMARK  100  A    between atoms: _245  and  _246
REMARK  101  A    between atoms: _248  and  _250
REMARK  102  A    between atoms: _250  and  _251
REMARK  103  A    between atoms: _250  and  _253
REMARK  104  A    between atoms: _253  and  _254
REMARK  105  A    between atoms: _260  and  _262
REMARK  106  A    between atoms: _262  and  _263
REMARK  107  A    between atoms: _265  and  _267
REMARK  108  A    between atoms: _267  and  _268
REMARK  109  A    between atoms: _267  and  _270
REMARK  110  A    between atoms: _270  and  _271
REMARK  111  A    between atoms: _274  and  _276
REMARK  112  A    between atoms: _276  and  _277
REMARK  113  A    between atoms: _276  and  _279
REMARK  114  A    between atoms: _279  and  _280
REMARK  115  A    between atoms: _283  and  _285
REMARK  116  A    between atoms: _285  and  _286
REMARK  117  A    between atoms: _285  and  _288
REMARK  118  A    between atoms: _288  and  _289
REMARK  119  A    between atoms: _292  and  _294
REMARK  120  A    between atoms: _294  and  _295
REMARK  121  A    between atoms: _297  and  _299
REMARK  122  A    between atoms: _299  and  _300
REMARK  123  A    between atoms: _299  and  _302
REMARK  124  A    between atoms: _302  and  _303
REMARK  125  A    between atoms: _313  and  _315
REMARK  126  A    between atoms: _315  and  _316
REMARK  127  A    between atoms: _315  and  _318
REMARK  128  A    between atoms: _318  and  _319
REMARK  129  A    between atoms: _322  and  _324
REMARK  130  A    between atoms: _324  and  _325
REMARK  131  A    between atoms: _324  and  _327
REMARK  132  A    between atoms: _327  and  _328
REMARK  133  A    between atoms: _331  and  _333
REMARK  134  A    between atoms: _333  and  _334
REMARK  135  A    between atoms: _333  and  _336
REMARK  136  A    between atoms: _336  and  _337
REMARK  137  A    between atoms: _339  and  _341
REMARK  138  A    between atoms: _341  and  _342
REMARK  139  A    between atoms: _341  and  _344
REMARK  140  A    between atoms: _344  and  _345
REMARK  141  A    between atoms: _348  and  _350
REMARK  142  A    between atoms: _350  and  _351
REMARK  143  A    between atoms: _350  and  _353
REMARK  144  A    between atoms: _353  and  _354
REMARK  145  A    between atoms: _357  and  _359
REMARK  146  A    between atoms: _359  and  _360
REMARK  147  A    between atoms: _359  and  _362
REMARK  148  A    between atoms: _362  and  _363
REMARK  149  A    between atoms: _368  and  _369
REMARK  150  A    between atoms: _371  and  _373
REMARK  151  A    between atoms: _373  and  _374
REMARK  152  A    between atoms: _373  and  _376
REMARK  153  A    between atoms: _376  and  _377
REMARK  154  A    between atoms: _387  and  _389
REMARK  155  A    between atoms: _389  and  _390
REMARK  156  A    between atoms: _389  and  _392
REMARK  157  A    between atoms: _392  and  _393
REMARK  158  A    between atoms: _398  and  _400
REMARK  159  A    between atoms: _400  and  _401
REMARK  160  A    between atoms: _400  and  _403
REMARK  161  A    between atoms: _403  and  _404
REMARK  162  A    between atoms: _407  and  _409
REMARK  163  A    between atoms: _409  and  _410
REMARK  164  A    between atoms: _409  and  _412
REMARK  165  A    between atoms: _415  and  _417
REMARK  166  A    between atoms: _417  and  _418
REMARK  167  A    between atoms: _417  and  _420
REMARK  168  A    between atoms: _420  and  _421
REMARK  169  A    between atoms: _424  and  _426
REMARK  170  A    between atoms: _426  and  _427
REMARK  171  A    between atoms: _426  and  _429
REMARK  172  A    between atoms: _429  and  _430
REMARK  173  A    between atoms: _432  and  _434
REMARK  174  A    between atoms: _434  and  _435
REMARK  175  A    between atoms: _437  and  _439
REMARK  176  A    between atoms: _439  and  _440
REMARK  177  A    between atoms: _439  and  _442
REMARK  178  A    between atoms: _442  and  _443
REMARK  179  A    between atoms: _446  and  _448
REMARK  180  A    between atoms: _448  and  _449
REMARK  181  A    between atoms: _448  and  _451
REMARK  182  A    between atoms: _451  and  _452
REMARK  183  A    between atoms: _454  and  _456
REMARK  184  A    between atoms: _456  and  _457
REMARK  185  A    between atoms: _460  and  _462
REMARK  186  A    between atoms: _462  and  _463
REMARK  187  A    between atoms: _462  and  _465
REMARK  188  A    between atoms: _465  and  _466
REMARK  189  A    between atoms: _469  and  _471
REMARK  190  A    between atoms: _471  and  _472
REMARK  191  A    between atoms: _471  and  _474
REMARK  192  A    between atoms: _474  and  _475
REMARK  193  A    between atoms: _478  and  _480
REMARK  194  A    between atoms: _480  and  _481
REMARK  195  A    between atoms: _480  and  _483
REMARK  196  A    between atoms: _487  and  _488
REMARK  197  A    between atoms: _493  and  _495
REMARK  198  A    between atoms: _495  and  _496
REMARK  199  A    between atoms: _495  and  _498
REMARK  200  A    between atoms: _498  and  _499
REMARK  201  A    between atoms: _504  and  _506
REMARK  202  A    between atoms: _506  and  _507
REMARK  203  A    between atoms: _506  and  _509
REMARK  204  A    between atoms: _509  and  _510
REMARK  205  A    between atoms: _513  and  _515
REMARK  206  A    between atoms: _515  and  _516
REMARK  207  A    between atoms: _515  and  _518
REMARK  208  A    between atoms: _518  and  _519
REMARK  209  A    between atoms: _522  and  _524
REMARK  210  A    between atoms: _524  and  _525
REMARK  211  A    between atoms: _524  and  _527
REMARK  212  A    between atoms: _527  and  _528
REMARK  213  A    between atoms: _531  and  _533
REMARK  214  A    between atoms: _533  and  _534
REMARK  215  A    between atoms: _533  and  _536
REMARK  216  A    between atoms: _536  and  _537
REMARK  217  A    between atoms: _543  and  _545
REMARK  218  A    between atoms: _545  and  _546
REMARK  219  A    between atoms: _545  and  _548
REMARK  220  A    between atoms: _548  and  _549
REMARK  221  A    between atoms: _552  and  _554
REMARK  222  A    between atoms: _554  and  _555
REMARK  223  A    between atoms: _554  and  _557
REMARK  224  A    between atoms: _557  and  _558
REMARK  225  A    between atoms: _564  and  _566
REMARK  226  A    between atoms: _566  and  _567
REMARK  227  A    between atoms: _566  and  _569
REMARK  228  A    between atoms: _569  and  _570
REMARK  229  A    between atoms: _573  and  _575
REMARK  230  A    between atoms: _575  and  _576
REMARK  231  A    between atoms: _575  and  _578
REMARK  232  A    between atoms: _578  and  _579
REMARK  233  A    between atoms: _582  and  _584
REMARK  234  A    between atoms: _584  and  _585
REMARK  235  A    between atoms: _587  and  _589
REMARK  236  A    between atoms: _589  and  _590
REMARK  237  A    between atoms: _589  and  _592
REMARK  238  A    between atoms: _592  and  _593
REMARK                            x       y       z     vdW  Elec       q    Type
REMARK                         _______ _______ _______ _____ _____    ______ ____
ROOT
ATOM      1  CB  ASN A   1      44.657  35.924  20.948  0.00  0.00    +0.110 C 
ENDROOT
BRANCH   1   2
ATOM      2  CG  ASN A   1      43.150  36.062  21.082  0.00  0.00    +0.221 C 
ATOM      3  OD1 ASN A   1      42.540  35.835  22.154  0.00  0.00    -0.275 OA
ATOM      4  ND2 ASN A   1      42.523  36.447  19.970  0.00  0.00    -0.329 N 
ATOM      5 HD21 ASN A   1      41.490  36.569  19.971  0.00  0.00    +0.145 HD
ATOM      6 HD22 ASN A   1      43.067  36.625  19.102  0.00  0.00    +0.145 HD
ENDBRANCH   1   2
BRANCH   1   7
ATOM      7  CA  ASN A   1      45.203  34.554  21.394  0.00  0.00    +0.142 C 
BRANCH   7   8
ATOM      8  N   ASN A   1      46.592  34.432  20.974  0.00  0.00    -0.239 NA
ATOM      9  H   ASN A   1      46.927  35.018  20.182  0.00  0.00    +0.142 HD
ENDBRANCH   7   8
BRANCH   7  10
ATOM     10  C   ASN A   1      44.548  33.350  20.708  0.00  0.00    +0.225 C 
ATOM     11  O   ASN A   1      44.820  33.066  19.522  0.00  0.00    -0.287 OA
ENDBRANCH   7  10
ENDBRANCH   1   7
TORSDOF 4
REMARK  Name = ../refined-set-2016/1lee/1lee_pocket.pdb
REMARK  238 active torsions:
REMARK  status: ('A' for Active; 'I' for Inactive)
REMARK    1  A    between atoms: _1  and  _3
REMARK    2  A    between atoms: _3  and  _4
REMARK    3  A    between atoms: _3  and  _6
REMARK    4  A    between atoms: _6  and  _7
REMARK    5  A    between atoms: _10  and  _12
REMARK    6  A    between atoms: _12  and  _13
REMARK    7  A    between atoms: _12  and  _15
REMARK    8  A    between atoms: _16  and  _17
REMARK    9  A    between atoms: _19  and  _21
REMARK   10  A    between atoms: _21  and  _22
REMARK   11  A    between atoms: _21  and  _24
REMARK   12  A    between atoms: _24  and  _25
REMARK   13  A    between atoms: _30  and  _31
REMARK   14  A    between atoms: _33  and  _35
REMARK   15  A    between atoms: _35  and  _36
REMARK   16  A    between atoms: _35  and  _38
REMARK   17  A    between atoms: _38  and  _39
REMARK   18  A    between atoms: _42  and  _44
REMARK   19  A    between atoms: _44  and  _45
REMARK   20  A    between atoms: _44  and  _47
REMARK   21  A    between atoms: _47  and  _48
REMARK   22  A    between atoms: _51  and  _53
REMARK   23  A    between atoms: _53  and  _54
REMARK   24  A    between atoms: _53  and  _56
REMARK   25  A    between atoms: _56  and  _57
REMARK   26  A    between atoms: _60  and  _62
REMARK   27  A    between atoms: _62  and  _63
REMARK   28  A    between atoms: _62  and  _65
REMARK   29  A    between atoms: _65  and  _66
REMARK   30  A    between atoms: _69  and  _71
REMARK   31  A    between atoms: _71  and  _72
REMARK   32  A    between atoms: _74  and  _76
REMARK   33  A    between atoms: _76  and  _77
REMARK   34  A    between atoms: _76  and  _79
REMARK   35  A    between atoms: _79  and  _80
REMARK   36  A    between atoms: _82  and  _84
REMARK   37  A    between atoms: _84  and  _85
REMARK   38  A    between atoms: _88  and  _90
REMARK   39  A    between atoms: _90  and  _91
REMARK   40  A    between atoms: _90  and  _93
REMARK   41  A    between atoms: _93  and  _94
REMARK   42  A    between atoms: _99  and  _101
REMARK   43  A    between atoms: _101  and  _102
REMARK   44  A    between atoms: _101  and  _104
REMARK   45  A    between atoms: _104  and  _105
REMARK   46  A    between atoms: _115  and  _117
REMARK   47  A    between atoms: _117  and  _118
REMARK   48  A    between atoms: _117  and  _120
REMARK   49  A    between atoms: _123  and  _125
REMARK   50  A    between atoms: _125  and  _126
REMARK   51  A    between atoms: _125  and  _128
REMARK   52  A    between atoms: _128  and  _129
REMARK   53  A    between atoms: _129  and  _130
REMARK   54  A    between atoms: _133  and  _135
REMARK   55  A    between atoms: _135  and  _136
REMARK   56  A    between atoms: _135  and  _138
REMARK   57  A    between atoms: _138  and  _139
REMARK   58  A    between atoms: _139  and  _140
REMARK   59  A    between atoms: _142  and  _144
REMARK   60  A    between atoms: _144  and  _145
REMARK   61  A    between atoms: _144  and  _147
REMARK   62  A    between atoms: _147  and  _148
REMARK   63  A    between atoms: _153  and  _155
REMARK   64  A    between atoms: _155  and  _156
REMARK   65  A    between atoms: _155  and  _158
REMARK   66  A    between atoms: _158  and  _159
REMARK   67  A    between atoms: _164  and  _165
REMARK   68  A    between atoms: _167  and  _169
REMARK   69  A    between atoms: _169  and  _170
REMARK   70  A    between atoms: _169  and  _172
REMARK   71  A    between atoms: _175  and  _177
REMARK   72  A    between atoms: _177  and  _178
REMARK   73  A    between atoms: _177  and  _180
REMARK   74  A    between atoms: _180  and  _181
REMARK   75  A    between atoms: _183  and  _185
REMARK   76  A    between atoms: _185  and  _186
REMARK   77  A    between atoms: _188  and  _190
REMARK   78  A    between atoms: _190  and  _191
REMARK   79  A    between atoms: _190  and  _193
REMARK   80  A    between atoms: _193  and  _194
REMARK   81  A    between atoms: _197  and  _199
REMARK   82  A    between atoms: _199  and  _200
REMARK   83  A    between atoms: _199  and  _202
REMARK   84  A    between atoms: _205  and  _207
REMARK   85  A    between atoms: _207  and  _208
REMARK   86  A    between atoms: _207  and  _210
REMARK   87  A    between atoms: _210  and  _211
REMARK   88  A    between atoms: _217  and  _219
REMARK   89  A    between atoms: _219  and  _220
REMARK   90  A    between atoms: _219  and  _222
REMARK   91  A    between atoms: _222  and  _223
REMARK   92  A    between atoms: _226  and  _228
REMARK   93  A    between atoms: _228  and  _229
REMARK   94  A    between atoms: _228  and  _231
REMARK   95  A    between atoms: _231  and  _232
REMARK   96  A    between atoms: _237  and  _238
REMARK   97  A    between atoms: _240  and  _242
REMARK   98  A    between atoms: _242  and  _243
REMARK   99  A    between atoms: _242  and  _245
REMARK  100  A    between atoms: _245  and  _246
REMARK  101  A    between atoms: _248  and  _250
REMARK  102  A    between atoms: _250  and  _251
REMARK  103  A    between atoms: _250  and  _253
REMARK  104  A    between atoms: _253  and  _254
REMARK  105  A    between atoms: _260  and  _262
REMARK  106  A    between atoms: _262  and  _263
REMARK  107  A    between atoms: _265  and  _267
REMARK  108  A    between atoms: _267  and  _268
REMARK  109  A    between atoms: _267  and  _270
REMARK  110  A    between atoms: _270  and  _271
REMARK  111  A    between atoms: _274  and  _276
REMARK  112  A    between atoms: _276  and  _277
REMARK  113  A    between atoms: _276  and  _279
REMARK  114  A    between atoms: _279  and  _280
REMARK  115  A    between atoms: _283  and  _285
REMARK  116  A    between atoms: _285  and  _286
REMARK  117  A    between atoms: _285  and  _288
REMARK  118  A    between atoms: _288  and  _289
REMARK  119  A    between atoms: _292  and  _294
REMARK  120  A    between atoms: _294  and  _295
REMARK  121  A    between atoms: _297  and  _299
REMARK  122  A    between atoms: _299  and  _300
REMARK  123  A    between atoms: _299  and  _302
REMARK  124  A    between atoms: _302  and  _303
REMARK  125  A    between atoms: _313  and  _315
REMARK  126  A    between atoms: _315  and  _316
REMARK  127  A    between atoms: _315  and  _318
REMARK  128  A    between atoms: _318  and  _319
REMARK  129  A    between atoms: _322  and  _324
REMARK  130  A    between atoms: _324  and  _325
REMARK  131  A    between atoms: _324  and  _327
REMARK  132  A    between atoms: _327  and  _328
REMARK  133  A    between atoms: _331  and  _333
REMARK  134  A    between atoms: _333  and  _334
REMARK  135  A    between atoms: _333  and  _336
REMARK  136  A    between atoms: _336  and  _337
REMARK  137  A    between atoms: _339  and  _341
REMARK  138  A    between atoms: _341  and  _342
REMARK  139  A    between atoms: _341  and  _344
REMARK  140  A    between atoms: _344  and  _345
REMARK  141  A    between atoms: _348  and  _350
REMARK  142  A    between atoms: _350  and  _351
REMARK  143  A    between atoms: _350  and  _353
REMARK  144  A    between atoms: _353  and  _354
REMARK  145  A    between atoms: _357  and  _359
REMARK  146  A    between atoms: _359  and  _360
REMARK  147  A    between atoms: _359  and  _362
REMARK  148  A    between atoms: _362  and  _363
REMARK  149  A    between atoms: _368  and  _369
REMARK  150  A    between atoms: _371  and  _373
REMARK  151  A    between atoms: _373  and  _374
REMARK  152  A    between atoms: _373  and  _376
REMARK  153  A    between atoms: _376  and  _377
REMARK  154  A    between atoms: _387  and  _389
REMARK  155  A    between atoms: _389  and  _390
REMARK  156  A    between atoms: _389  and  _392
REMARK  157  A    between atoms: _392  and  _393
REMARK  158  A    between atoms: _398  and  _400
REMARK  159  A    between atoms: _400  and  _401
REMARK  160  A    between atoms: _400  and  _403
REMARK  161  A    between atoms: _403  and  _404
REMARK  162  A    between atoms: _407  and  _409
REMARK  163  A    between atoms: _409  and  _410
REMARK  164  A    between atoms: _409  and  _412
REMARK  165  A    between atoms: _415  and  _417
REMARK  166  A    between atoms: _417  and  _418
REMARK  167  A    between atoms: _417  and  _420
REMARK  168  A    between atoms: _420  and  _421
REMARK  169  A    between atoms: _424  and  _426
REMARK  170  A    between atoms: _426  and  _427
REMARK  171  A    between atoms: _426  and  _429
REMARK  172  A    between atoms: _429  and  _430
REMARK  173  A    between atoms: _432  and  _434
REMARK  174  A    between atoms: _434  and  _435
REMARK  175  A    between atoms: _437  and  _439
REMARK  176  A    between atoms: _439  and  _440
REMARK  177  A    between atoms: _439  and  _442
REMARK  178  A    between atoms: _442  and  _443
REMARK  179  A    between atoms: _446  and  _448
REMARK  180  A    between atoms: _448  and  _449
REMARK  181  A    between atoms: _448  and  _451
REMARK  182  A    between atoms: _451  and  _452
REMARK  183  A    between atoms: _454  and  _456
REMARK  184  A    between atoms: _456  and  _457
REMARK  185  A    between atoms: _460  and  _462
REMARK  186  A    between atoms: _462  and  _463
REMARK  187  A    between atoms: _462  and  _465
REMARK  188  A    between atoms: _465  and  _466
REMARK  189  A    between atoms: _469  and  _471
REMARK  190  A    between atoms: _471  and  _472
REMARK  191  A    between atoms: _471  and  _474
REMARK  192  A    between atoms: _474  and  _475
REMARK  193  A    between atoms: _478  and  _480
REMARK  194  A    between atoms: _480  and  _481
REMARK  195  A    between atoms: _480  and  _483
REMARK  196  A    between atoms: _487  and  _488
REMARK  197  A    between atoms: _493  and  _495
REMARK  198  A    between atoms: _495  and  _496
REMARK  199  A    between atoms: _495  and  _498
REMARK  200  A    between atoms: _498  and  _499
REMARK  201  A    between atoms: _504  and  _506
REMARK  202  A    between atoms: _506  and  _507
REMARK  203  A    between atoms: _506  and  _509
REMARK  204  A    between atoms: _509  and  _510
REMARK  205  A    between atoms: _513  and  _515
REMARK  206  A    between atoms: _515  and  _516
REMARK  207  A    between atoms: _515  and  _518
REMARK  208  A    between atoms: _518  and  _519
REMARK  209  A    between atoms: _522  and  _524
REMARK  210  A    between atoms: _524  and  _525
REMARK  211  A    between atoms: _524  and  _527
REMARK  212  A    between atoms: _527  and  _528
REMARK  213  A    between atoms: _531  and  _533
REMARK  214  A    between atoms: _533  and  _534
REMARK  215  A    between atoms: _533  and  _536
REMARK  216  A    between atoms: _536  and  _537
REMARK  217  A    between atoms: _543  and  _545
REMARK  218  A    between atoms: _545  and  _546
REMARK  219  A    between atoms: _545  and  _548
REMARK  220  A    between atoms: _548  and  _549
REMARK  221  A    between atoms: _552  and  _554
REMARK  222  A    between atoms: _554  and  _555
REMARK  223  A    between atoms: _554  and  _557
REMARK  224  A    between atoms: _557  and  _558
REMARK  225  A    between atoms: _564  and  _566
REMARK  226  A    between atoms: _566  and  _567
REMARK  227  A    between atoms: _566  and  _569
REMARK  228  A    between atoms: _569  and  _570
REMARK  229  A    between atoms: _573  and  _575
REMARK  230  A    between atoms: _575  and  _576
REMARK  231  A    between atoms: _575  and  _578
REMARK  232  A    between atoms: _578  and  _579
REMARK  233  A    between atoms: _582  and  _584
REMARK  234  A    between atoms: _584  and  _585
REMARK  235  A    between atoms: _587  and  _589
REMARK  236  A    between atoms: _589  and  _590
REMARK  237  A    between atoms: _589  and  _592
REMARK  238  A    between atoms: _592  and  _593
REMARK                            x       y       z     vdW  Elec       q    Type
REMARK                         _______ _______ _______ _____ _____    ______ ____
ROOT
ATOM      1  CA  THR A   6      34.256  27.309  13.153  0.00  0.00    +0.176 C 
ENDROOT
BRANCH   1   2
ATOM      2  C   THR A   6      34.562  25.849  12.862  0.00  0.00    +0.243 C 
ATOM      3  O   THR A   6      34.870  25.088  13.778  0.00  0.00    -0.273 OA
ATOM      4  N   SER A   7      34.461  25.436  11.595  0.00  0.00    -0.295 N 
ATOM      5  H   SER A   7      34.204  26.112  10.848  0.00  0.00    +0.150 HD
BRANCH   4   6
ATOM      6  CA  SER A   7      34.711  24.032  11.256  0.00  0.00    +0.178 C 
BRANCH   6   7
ATOM      7  C   SER A   7      36.154  23.642  10.954  0.00  0.00    +0.243 C 
ATOM      8  N   ALA A   8      37.067  24.589  11.052  0.00  0.00    -0.297 N 
ATOM      9  H   ALA A   8      36.782  25.551  11.325  0.00  0.00    +0.150 HD
ATOM     10  O   SER A   7      36.458  22.468  10.820  0.00  0.00    -0.273 OA
BRANCH   8  11
ATOM     11  CA  ALA A   8      38.467  24.303  10.783  0.00  0.00    +0.149 C 
ATOM     12  CB  ALA A   8      38.872  25.042   9.505  0.00  0.00    +0.031 C 
BRANCH  11  13
ATOM     13  C   ALA A   8      39.321  24.863  11.915  0.00  0.00    +0.241 C 
ATOM     14  O   ALA A   8      38.782  25.466  12.825  0.00  0.00    -0.273 OA
ATOM     15  N   ILE A   9      40.630  24.572  11.902  0.00  0.00    -0.297 N 
ATOM     16  H   ILE A   9      41.000  23.865  11.236  0.00  0.00    +0.150 HD
BRANCH  15  17
ATOM     17  CA  ILE A   9      41.530  25.248  12.822  0.00  0.00    +0.149 C 
BRANCH  17  18
ATOM     18  C   ILE A   9      42.086  26.437  11.959  0.00  0.00    +0.241 C 
ATOM     19  N   THR A  10      41.997  27.677  12.439  0.00  0.00    -0.295 N 
ATOM     20  H   THR A  10      41.497  27.852  13.334  0.00  0.00    +0.150 HD
ATOM     21  O   ILE A   9      42.500  26.226  10.810  0.00  0.00    -0.273 OA
BRANCH  19  22
ATOM     22  CA  THR A  10      42.587  28.767  11.728  0.00  0.00    +0.176 C 
BRANCH  22  23
ATOM     23  C   THR A  10      43.911  29.117  12.434  0.00  0.00    +0.243 C 
ATOM     24  O   THR A  10      44.081  28.886  13.632  0.00  0.00    -0.273 OA
ATOM     25  N   VAL A  11      44.873  29.496  11.582  0.00  0.00    -0.298 N 
ATOM     26  H   VAL A  11      44.588  29.582  10.585  0.00  0.00    +0.150 HD
BRANCH  25  27
ATOM     27  CA  VAL A  11      46.274  29.804  11.875  0.00  0.00    +0.137 C 
BRANCH  27  28
ATOM     28  CB  VAL A  11      47.177  28.612  11.206  0.00  0.00    +0.026 C 
ATOM     29  CG2 VAL A  11      46.906  27.210  11.854  0.00  0.00    +0.002 C 
ATOM     30  CG1 VAL A  11      48.644  28.901  11.239  0.00  0.00    +0.002 C 
ENDBRANCH  27  28
BRANCH  27  31
ATOM     31  C   VAL A  11      46.675  31.202  11.254  0.00  0.00    +0.227 C 
ATOM     32  O   VAL A  11      46.086  31.649  10.257  0.00  0.00    -0.286 OA
ENDBRANCH  27  31
ENDBRANCH  25  27
ENDBRANCH  22  23
BRANCH  22  33
ATOM     33  CB  THR A  10      41.673  30.009  11.477  0.00  0.00    +0.137 C 
ATOM     34  CG2 THR A  10      40.261  29.597  11.032  0.00  0.00    +0.034 C 
BRANCH  33  35
ATOM     35  OG1 THR A  10      41.592  30.811  12.642  0.00  0.00    -0.382 OA
ATOM     36  HG1 THR A  10      42.498  31.123  12.890  0.00  0.00    +0.210 HD
ENDBRANCH  33  35
ENDBRANCH  22  33
ENDBRANCH  19  22
ENDBRANCH  17  18
BRANCH  17  37
ATOM     37  CB  ILE A   9      42.783  24.408  13.234  0.00  0.00    +0.027 C 
ATOM     38  CG2 ILE A   9      43.725  25.279  14.116  0.00  0.00    +0.002 C 
BRANCH  37  39
ATOM     39  CG1 ILE A   9      42.394  23.132  13.934  0.00  0.00    +0.002 C 
ATOM     40  CD1 ILE A   9      41.609  23.409  15.205  0.00  0.00    +0.000 C 
ENDBRANCH  37  39
ENDBRANCH  17  37
ENDBRANCH  15  17
ENDBRANCH  11  13
ENDBRANCH   8  11
ENDBRANCH   6   7
BRANCH   6  41
ATOM     41  CB  SER A   7      33.793  23.584  10.121  0.00  0.00    +0.166 C 
BRANCH  41  42
ATOM     42  OG  SER A   7      34.068  24.366   8.977  0.00  0.00    -0.380 OA
ATOM     43  H   SER A   7      35.014  24.241   8.713  0.00  0.00    +0.211 HD
ENDBRANCH  41  42
ENDBRANCH   6  41
ENDBRANCH   4   6
ENDBRANCH   1   2
BRANCH   1  45
ATOM     44  C   GLY A   5      31.920  27.645  13.967  0.00  0.00    +0.243 C 
ATOM     45  N   THR A   6      33.203  27.338  14.214  0.00  0.00    -0.295 N 
ATOM     46  H   THR A   6      33.478  27.109  15.191  0.00  0.00    +0.150 HD
ATOM     47  O   GLY A   5      31.518  28.075  12.882  0.00  0.00    -0.273 OA
BRANCH  44  48
ATOM     48  CA  GLY A   5      30.919  27.596  15.119  0.00  0.00    +0.176 C 
BRANCH  48  50
ATOM     49  C   SER A   4      31.571  25.844  16.723  0.00  0.00    +0.243 C 
ATOM     50  N   GLY A   5      31.463  27.133  16.382  0.00  0.00    -0.295 N 
ATOM     51  H   GLY A   5      31.789  27.847  17.064  0.00  0.00    +0.150 HD
ATOM     52  O   SER A   4      31.269  24.907  15.969  0.00  0.00    -0.273 OA
BRANCH  49  53
ATOM     53  CA  SER A   4      32.154  25.557  18.164  0.00  0.00    +0.178 C 
BRANCH  53  55
ATOM     54  C   ASP A   3      34.065  27.149  18.038  0.00  0.00    +0.241 C 
ATOM     55  N   SER A   4      32.929  26.736  18.628  0.00  0.00    -0.295 N 
ATOM     56  H   SER A   4      32.576  27.268  19.449  0.00  0.00    +0.150 HD
ATOM     57  O   ASP A   3      34.626  26.508  17.142  0.00  0.00    -0.273 OA
BRANCH  54  58
ATOM     58  CA  ASP A   3      34.718  28.416  18.574  0.00  0.00    +0.160 C 
BRANCH  58  61
ATOM     59  C   VAL A   2      36.108  28.565  20.571  0.00  0.00    +0.241 C 
ATOM     60  O   VAL A   2      35.155  28.899  21.244  0.00  0.00    -0.273 OA
ATOM     61  N   ASP A   3      35.972  28.181  19.300  0.00  0.00    -0.297 N 
ATOM     62  H   ASP A   3      36.764  27.710  18.818  0.00  0.00    +0.150 HD
BRANCH  59  63
ATOM     63  CA  VAL A   2      37.519  28.417  21.206  0.00  0.00    +0.148 C 
BRANCH  63  65
ATOM     64  C   ILE A   1      38.834  30.194  20.144  0.00  0.00    +0.238 C 
ATOM     65  N   VAL A   2      38.155  29.737  21.205  0.00  0.00    -0.297 N 
ATOM     66  H   VAL A   2      38.077  30.336  22.052  0.00  0.00    +0.150 HD
ATOM     67  O   ILE A   1      39.024  29.530  19.120  0.00  0.00    -0.274 OA
BRANCH  64  68
ATOM     68  CA  ILE A   1      39.439  31.576  20.265  0.00  0.00    +0.145 C 
BRANCH  68  69
ATOM     69  CB  ILE A   1      38.812  32.466  19.185  0.00  0.00    +0.025 C 
ATOM     70  CG2 ILE A   1      37.298  32.489  19.326  0.00  0.00    +0.002 C 
BRANCH  69  71
ATOM     71  CG1 ILE A   1      39.362  33.860  19.265  0.00  0.00    +0.002 C 
ATOM     72  CD1 ILE A   1      39.092  34.598  18.023  0.00  0.00    +0.000 C 
ENDBRANCH  69  71
ENDBRANCH  68  69
BRANCH  68  73
ATOM     73  N   ILE A   1      40.902  31.491  20.134  0.00  0.00    -0.238 NA
ATOM     74  H   ILE A   1      41.334  31.488  19.188  0.00  0.00    +0.142 HD
ENDBRANCH  68  73
ENDBRANCH  64  68
ENDBRANCH  63  65
BRANCH  63  75
ATOM     75  CB  VAL A   2      37.469  27.788  22.661  0.00  0.00    +0.027 C 
ATOM     76  CG2 VAL A   2      38.935  27.631  23.237  0.00  0.00    +0.002 C 
ATOM     77  CG1 VAL A   2      36.756  26.442  22.617  0.00  0.00    +0.002 C 
ENDBRANCH  63  75
ENDBRANCH  59  63
ENDBRANCH  58  61
BRANCH  58  78
ATOM     78  CB  ASP A   3      35.039  29.360  17.413  0.00  0.00    +0.143 C 
BRANCH  78  79
ATOM     79  CG  ASP A   3      33.778  29.945  16.722  0.00  0.00    +0.367 C 
ATOM     80  OD2 ASP A   3      32.662  29.655  17.167  0.00  0.00    -0.246 OA
ATOM     81  OD1 ASP A   3      33.931  30.750  15.765  0.00  0.00    -0.246 OA
ENDBRANCH  78  79
ENDBRANCH  58  78
ENDBRANCH  54  58
ENDBRANCH  53  55
BRANCH  53  82
ATOM     82  CB  SER A   4      30.954  25.336  19.095  0.00  0.00    +0.166 C 
BRANCH  82  83
ATOM     83  OG  SER A   4      30.240  26.579  19.240  0.00  0.00    -0.380 OA
ATOM     84  H   SER A   4      29.924  26.882  18.352  0.00  0.00    +0.211 HD
ENDBRANCH  82  83
ENDBRANCH  53  82
ENDBRANCH  49  53
ENDBRANCH  48  50
ENDBRANCH  44  48
ENDBRANCH   1  45
BRANCH   1  85
ATOM     85  CB  THR A   6      35.539  28.072  13.574  0.00  0.00    +0.137 C 
ATOM     86  CG2 THR A   6      36.679  27.869  12.603  0.00  0.00    +0.034 C 
BRANCH  85  87
ATOM     87  OG1 THR A   6      35.264  29.453  13.550  0.00  0.00    -0.382 OA
ATOM     88  HG1 THR A   6      34.528  29.653  14.182  0.00  0.00    +0.210 HD
ENDBRANCH  85  87
ENDBRANCH   1  85
TORSDOF 38
REMARK  Name = ../refined-set-2016/1lee/1lee_pocket.pdb
REMARK  238 active torsions:
REMARK  status: ('A' for Active; 'I' for Inactive)
REMARK    1  A    between atoms: _1  and  _3
REMARK    2  A    between atoms: _3  and  _4
REMARK    3  A    between atoms: _3  and  _6
REMARK    4  A    between atoms: _6  and  _7
REMARK    5  A    between atoms: _10  and  _12
REMARK    6  A    between atoms: _12  and  _13
REMARK    7  A    between atoms: _12  and  _15
REMARK    8  A    between atoms: _16  and  _17
REMARK    9  A    between atoms: _19  and  _21
REMARK   10  A    between atoms: _21  and  _22
REMARK   11  A    between atoms: _21  and  _24
REMARK   12  A    between atoms: _24  and  _25
REMARK   13  A    between atoms: _30  and  _31
REMARK   14  A    between atoms: _33  and  _35
REMARK   15  A    between atoms: _35  and  _36
REMARK   16  A    between atoms: _35  and  _38
REMARK   17  A    between atoms: _38  and  _39
REMARK   18  A    between atoms: _42  and  _44
REMARK   19  A    between atoms: _44  and  _45
REMARK   20  A    between atoms: _44  and  _47
REMARK   21  A    between atoms: _47  and  _48
REMARK   22  A    between atoms: _51  and  _53
REMARK   23  A    between atoms: _53  and  _54
REMARK   24  A    between atoms: _53  and  _56
REMARK   25  A    between atoms: _56  and  _57
REMARK   26  A    between atoms: _60  and  _62
REMARK   27  A    between atoms: _62  and  _63
REMARK   28  A    between atoms: _62  and  _65
REMARK   29  A    between atoms: _65  and  _66
REMARK   30  A    between atoms: _69  and  _71
REMARK   31  A    between atoms: _71  and  _72
REMARK   32  A    between atoms: _74  and  _76
REMARK   33  A    between atoms: _76  and  _77
REMARK   34  A    between atoms: _76  and  _79
REMARK   35  A    between atoms: _79  and  _80
REMARK   36  A    between atoms: _82  and  _84
REMARK   37  A    between atoms: _84  and  _85
REMARK   38  A    between atoms: _88  and  _90
REMARK   39  A    between atoms: _90  and  _91
REMARK   40  A    between atoms: _90  and  _93
REMARK   41  A    between atoms: _93  and  _94
REMARK   42  A    between atoms: _99  and  _101
REMARK   43  A    between atoms: _101  and  _102
REMARK   44  A    between atoms: _101  and  _104
REMARK   45  A    between atoms: _104  and  _105
REMARK   46  A    between atoms: _115  and  _117
REMARK   47  A    between atoms: _117  and  _118
REMARK   48  A    between atoms: _117  and  _120
REMARK   49  A    between atoms: _123  and  _125
REMARK   50  A    between atoms: _125  and  _126
REMARK   51  A    between atoms: _125  and  _128
REMARK   52  A    between atoms: _128  and  _129
REMARK   53  A    between atoms: _129  and  _130
REMARK   54  A    between atoms: _133  and  _135
REMARK   55  A    between atoms: _135  and  _136
REMARK   56  A    between atoms: _135  and  _138
REMARK   57  A    between atoms: _138  and  _139
REMARK   58  A    between atoms: _139  and  _140
REMARK   59  A    between atoms: _142  and  _144
REMARK   60  A    between atoms: _144  and  _145
REMARK   61  A    between atoms: _144  and  _147
REMARK   62  A    between atoms: _147  and  _148
REMARK   63  A    between atoms: _153  and  _155
REMARK   64  A    between atoms: _155  and  _156
REMARK   65  A    between atoms: _155  and  _158
REMARK   66  A    between atoms: _158  and  _159
REMARK   67  A    between atoms: _164  and  _165
REMARK   68  A    between atoms: _167  and  _169
REMARK   69  A    between atoms: _169  and  _170
REMARK   70  A    between atoms: _169  and  _172
REMARK   71  A    between atoms: _175  and  _177
REMARK   72  A    between atoms: _177  and  _178
REMARK   73  A    between atoms: _177  and  _180
REMARK   74  A    between atoms: _180  and  _181
REMARK   75  A    between atoms: _183  and  _185
REMARK   76  A    between atoms: _185  and  _186
REMARK   77  A    between atoms: _188  and  _190
REMARK   78  A    between atoms: _190  and  _191
REMARK   79  A    between atoms: _190  and  _193
REMARK   80  A    between atoms: _193  and  _194
REMARK   81  A    between atoms: _197  and  _199
REMARK   82  A    between atoms: _199  and  _200
REMARK   83  A    between atoms: _199  and  _202
REMARK   84  A    between atoms: _205  and  _207
REMARK   85  A    between atoms: _207  and  _208
REMARK   86  A    between atoms: _207  and  _210
REMARK   87  A    between atoms: _210  and  _211
REMARK   88  A    between atoms: _217  and  _219
REMARK   89  A    between atoms: _219  and  _220
REMARK   90  A    between atoms: _219  and  _222
REMARK   91  A    between atoms: _222  and  _223
REMARK   92  A    between atoms: _226  and  _228
REMARK   93  A    between atoms: _228  and  _229
REMARK   94  A    between atoms: _228  and  _231
REMARK   95  A    between atoms: _231  and  _232
REMARK   96  A    between atoms: _237  and  _238
REMARK   97  A    between atoms: _240  and  _242
REMARK   98  A    between atoms: _242  and  _243
REMARK   99  A    between atoms: _242  and  _245
REMARK  100  A    between atoms: _245  and  _246
REMARK  101  A    between atoms: _248  and  _250
REMARK  102  A    between atoms: _250  and  _251
REMARK  103  A    between atoms: _250  and  _253
REMARK  104  A    between atoms: _253  and  _254
REMARK  105  A    between atoms: _260  and  _262
REMARK  106  A    between atoms: _262  and  _263
REMARK  107  A    between atoms: _265  and  _267
REMARK  108  A    between atoms: _267  and  _268
REMARK  109  A    between atoms: _267  and  _270
REMARK  110  A    between atoms: _270  and  _271
REMARK  111  A    between atoms: _274  and  _276
REMARK  112  A    between atoms: _276  and  _277
REMARK  113  A    between atoms: _276  and  _279
REMARK  114  A    between atoms: _279  and  _280
REMARK  115  A    between atoms: _283  and  _285
REMARK  116  A    between atoms: _285  and  _286
REMARK  117  A    between atoms: _285  and  _288
REMARK  118  A    between atoms: _288  and  _289
REMARK  119  A    between atoms: _292  and  _294
REMARK  120  A    between atoms: _294  and  _295
REMARK  121  A    between atoms: _297  and  _299
REMARK  122  A    between atoms: _299  and  _300
REMARK  123  A    between atoms: _299  and  _302
REMARK  124  A    between atoms: _302  and  _303
REMARK  125  A    between atoms: _313  and  _315
REMARK  126  A    between atoms: _315  and  _316
REMARK  127  A    between atoms: _315  and  _318
REMARK  128  A    between atoms: _318  and  _319
REMARK  129  A    between atoms: _322  and  _324
REMARK  130  A    between atoms: _324  and  _325
REMARK  131  A    between atoms: _324  and  _327
REMARK  132  A    between atoms: _327  and  _328
REMARK  133  A    between atoms: _331  and  _333
REMARK  134  A    between atoms: _333  and  _334
REMARK  135  A    between atoms: _333  and  _336
REMARK  136  A    between atoms: _336  and  _337
REMARK  137  A    between atoms: _339  and  _341
REMARK  138  A    between atoms: _341  and  _342
REMARK  139  A    between atoms: _341  and  _344
REMARK  140  A    between atoms: _344  and  _345
REMARK  141  A    between atoms: _348  and  _350
REMARK  142  A    between atoms: _350  and  _351
REMARK  143  A    between atoms: _350  and  _353
REMARK  144  A    between atoms: _353  and  _354
REMARK  145  A    between atoms: _357  and  _359
REMARK  146  A    between atoms: _359  and  _360
REMARK  147  A    between atoms: _359  and  _362
REMARK  148  A    between atoms: _362  and  _363
REMARK  149  A    between atoms: _368  and  _369
REMARK  150  A    between atoms: _371  and  _373
REMARK  151  A    between atoms: _373  and  _374
REMARK  152  A    between atoms: _373  and  _376
REMARK  153  A    between atoms: _376  and  _377
REMARK  154  A    between atoms: _387  and  _389
REMARK  155  A    between atoms: _389  and  _390
REMARK  156  A    between atoms: _389  and  _392
REMARK  157  A    between atoms: _392  and  _393
REMARK  158  A    between atoms: _398  and  _400
REMARK  159  A    between atoms: _400  and  _401
REMARK  160  A    between atoms: _400  and  _403
REMARK  161  A    between atoms: _403  and  _404
REMARK  162  A    between atoms: _407  and  _409
REMARK  163  A    between atoms: _409  and  _410
REMARK  164  A    between atoms: _409  and  _412
REMARK  165  A    between atoms: _415  and  _417
REMARK  166  A    between atoms: _417  and  _418
REMARK  167  A    between atoms: _417  and  _420
REMARK  168  A    between atoms: _420  and  _421
REMARK  169  A    between atoms: _424  and  _426
REMARK  170  A    between atoms: _426  and  _427
REMARK  171  A    between atoms: _426  and  _429
REMARK  172  A    between atoms: _429  and  _430
REMARK  173  A    between atoms: _432  and  _434
REMARK  174  A    between atoms: _434  and  _435
REMARK  175  A    between atoms: _437  and  _439
REMARK  176  A    between atoms: _439  and  _440
REMARK  177  A    between atoms: _439  and  _442
REMARK  178  A    between atoms: _442  and  _443
REMARK  179  A    between atoms: _446  and  _448
REMARK  180  A    between atoms: _448  and  _449
REMARK  181  A    between atoms: _448  and  _451
REMARK  182  A    between atoms: _451  and  _452
REMARK  183  A    between atoms: _454  and  _456
REMARK  184  A    between atoms: _456  and  _457
REMARK  185  A    between atoms: _460  and  _462
REMARK  186  A    between atoms: _462  and  _463
REMARK  187  A    between atoms: _462  and  _465
REMARK  188  A    between atoms: _465  and  _466
REMARK  189  A    between atoms: _469  and  _471
REMARK  190  A    between atoms: _471  and  _472
REMARK  191  A    between atoms: _471  and  _474
REMARK  192  A    between atoms: _474  and  _475
REMARK  193  A    between atoms: _478  and  _480
REMARK  194  A    between atoms: _480  and  _481
REMARK  195  A    between atoms: _480  and  _483
REMARK  196  A    between atoms: _487  and  _488
REMARK  197  A    between atoms: _493  and  _495
REMARK  198  A    between atoms: _495  and  _496
REMARK  199  A    between atoms: _495  and  _498
REMARK  200  A    between atoms: _498  and  _499
REMARK  201  A    between atoms: _504  and  _506
REMARK  202  A    between atoms: _506  and  _507
REMARK  203  A    between atoms: _506  and  _509
REMARK  204  A    between atoms: _509  and  _510
REMARK  205  A    between atoms: _513  and  _515
REMARK  206  A    between atoms: _515  and  _516
REMARK  207  A    between atoms: _515  and  _518
REMARK  208  A    between atoms: _518  and  _519
REMARK  209  A    between atoms: _522  and  _524
REMARK  210  A    between atoms: _524  and  _525
REMARK  211  A    between atoms: _524  and  _527
REMARK  212  A    between atoms: _527  and  _528
REMARK  213  A    between atoms: _531  and  _533
REMARK  214  A    between atoms: _533  and  _534
REMARK  215  A    between atoms: _533  and  _536
REMARK  216  A    between atoms: _536  and  _537
REMARK  217  A    between atoms: _543  and  _545
REMARK  218  A    between atoms: _545  and  _546
REMARK  219  A    between atoms: _545  and  _548
REMARK  220  A    between atoms: _548  and  _549
REMARK  221  A    between atoms: _552  and  _554
REMARK  222  A    between atoms: _554  and  _555
REMARK  223  A    between atoms: _554  and  _557
REMARK  224  A    between atoms: _557  and  _558
REMARK  225  A    between atoms: _564  and  _566
REMARK  226  A    between atoms: _566  and  _567
REMARK  227  A    between atoms: _566  and  _569
REMARK  228  A    between atoms: _569  and  _570
REMARK  229  A    between atoms: _573  and  _575
REMARK  230  A    between atoms: _575  and  _576
REMARK  231  A    between atoms: _575  and  _578
REMARK  232  A    between atoms: _578  and  _579
REMARK  233  A    between atoms: _582  and  _584
REMARK  234  A    between atoms: _584  and  _585
REMARK  235  A    between atoms: _587  and  _589
REMARK  236  A    between atoms: _589  and  _590
REMARK  237  A    between atoms: _589  and  _592
REMARK  238  A    between atoms: _592  and  _593
REMARK                            x       y       z     vdW  Elec       q    Type
REMARK                         _______ _______ _______ _____ _____    ______ ____
ROOT
ATOM      1  N   PRO A   1      41.217  28.367  -0.365  0.00  0.00    -0.212 NA
ATOM      2  CA  PRO A   1      41.907  28.117   0.909  0.00  0.00    +0.137 C 
ATOM      3  CB  PRO A   1      40.906  28.641   1.934  0.00  0.00    +0.027 C 
ATOM      4  CG  PRO A   1      39.607  28.225   1.368  0.00  0.00    +0.021 C 
ATOM      5  CD  PRO A   1      39.802  28.696  -0.107  0.00  0.00    +0.089 C 
ENDROOT
BRANCH   2   6
ATOM      6  C   PRO A   1      42.344  26.693   1.254  0.00  0.00    +0.224 C 
ATOM      7  O   PRO A   1      42.924  26.495   2.319  0.00  0.00    -0.287 OA
ENDBRANCH   2   6
TORSDOF 1
REMARK  Name = ../refined-set-2016/1lee/1lee_pocket.pdb
REMARK  238 active torsions:
REMARK  status: ('A' for Active; 'I' for Inactive)
REMARK    1  A    between atoms: _1  and  _3
REMARK    2  A    between atoms: _3  and  _4
REMARK    3  A    between atoms: _3  and  _6
REMARK    4  A    between atoms: _6  and  _7
REMARK    5  A    between atoms: _10  and  _12
REMARK    6  A    between atoms: _12  and  _13
REMARK    7  A    between atoms: _12  and  _15
REMARK    8  A    between atoms: _16  and  _17
REMARK    9  A    between atoms: _19  and  _21
REMARK   10  A    between atoms: _21  and  _22
REMARK   11  A    between atoms: _21  and  _24
REMARK   12  A    between atoms: _24  and  _25
REMARK   13  A    between atoms: _30  and  _31
REMARK   14  A    between atoms: _33  and  _35
REMARK   15  A    between atoms: _35  and  _36
REMARK   16  A    between atoms: _35  and  _38
REMARK   17  A    between atoms: _38  and  _39
REMARK   18  A    between atoms: _42  and  _44
REMARK   19  A    between atoms: _44  and  _45
REMARK   20  A    between atoms: _44  and  _47
REMARK   21  A    between atoms: _47  and  _48
REMARK   22  A    between atoms: _51  and  _53
REMARK   23  A    between atoms: _53  and  _54
REMARK   24  A    between atoms: _53  and  _56
REMARK   25  A    between atoms: _56  and  _57
REMARK   26  A    between atoms: _60  and  _62
REMARK   27  A    between atoms: _62  and  _63
REMARK   28  A    between atoms: _62  and  _65
REMARK   29  A    between atoms: _65  and  _66
REMARK   30  A    between atoms: _69  and  _71
REMARK   31  A    between atoms: _71  and  _72
REMARK   32  A    between atoms: _74  and  _76
REMARK   33  A    between atoms: _76  and  _77
REMARK   34  A    between atoms: _76  and  _79
REMARK   35  A    between atoms: _79  and  _80
REMARK   36  A    between atoms: _82  and  _84
REMARK   37  A    between atoms: _84  and  _85
REMARK   38  A    between atoms: _88  and  _90
REMARK   39  A    between atoms: _90  and  _91
REMARK   40  A    between atoms: _90  and  _93
REMARK   41  A    between atoms: _93  and  _94
REMARK   42  A    between atoms: _99  and  _101
REMARK   43  A    between atoms: _101  and  _102
REMARK   44  A    between atoms: _101  and  _104
REMARK   45  A    between atoms: _104  and  _105
REMARK   46  A    between atoms: _115  and  _117
REMARK   47  A    between atoms: _117  and  _118
REMARK   48  A    between atoms: _117  and  _120
REMARK   49  A    between atoms: _123  and  _125
REMARK   50  A    between atoms: _125  and  _126
REMARK   51  A    between atoms: _125  and  _128
REMARK   52  A    between atoms: _128  and  _129
REMARK   53  A    between atoms: _129  and  _130
REMARK   54  A    between atoms: _133  and  _135
REMARK   55  A    between atoms: _135  and  _136
REMARK   56  A    between atoms: _135  and  _138
REMARK   57  A    between atoms: _138  and  _139
REMARK   58  A    between atoms: _139  and  _140
REMARK   59  A    between atoms: _142  and  _144
REMARK   60  A    between atoms: _144  and  _145
REMARK   61  A    between atoms: _144  and  _147
REMARK   62  A    between atoms: _147  and  _148
REMARK   63  A    between atoms: _153  and  _155
REMARK   64  A    between atoms: _155  and  _156
REMARK   65  A    between atoms: _155  and  _158
REMARK   66  A    between atoms: _158  and  _159
REMARK   67  A    between atoms: _164  and  _165
REMARK   68  A    between atoms: _167  and  _169
REMARK   69  A    between atoms: _169  and  _170
REMARK   70  A    between atoms: _169  and  _172
REMARK   71  A    between atoms: _175  and  _177
REMARK   72  A    between atoms: _177  and  _178
REMARK   73  A    between atoms: _177  and  _180
REMARK   74  A    between atoms: _180  and  _181
REMARK   75  A    between atoms: _183  and  _185
REMARK   76  A    between atoms: _185  and  _186
REMARK   77  A    between atoms: _188  and  _190
REMARK   78  A    between atoms: _190  and  _191
REMARK   79  A    between atoms: _190  and  _193
REMARK   80  A    between atoms: _193  and  _194
REMARK   81  A    between atoms: _197  and  _199
REMARK   82  A    between atoms: _199  and  _200
REMARK   83  A    between atoms: _199  and  _202
REMARK   84  A    between atoms: _205  and  _207
REMARK   85  A    between atoms: _207  and  _208
REMARK   86  A    between atoms: _207  and  _210
REMARK   87  A    between atoms: _210  and  _211
REMARK   88  A    between atoms: _217  and  _219
REMARK   89  A    between atoms: _219  and  _220
REMARK   90  A    between atoms: _219  and  _222
REMARK   91  A    between atoms: _222  and  _223
REMARK   92  A    between atoms: _226  and  _228
REMARK   93  A    between atoms: _228  and  _229
REMARK   94  A    between atoms: _228  and  _231
REMARK   95  A    between atoms: _231  and  _232
REMARK   96  A    between atoms: _237  and  _238
REMARK   97  A    between atoms: _240  and  _242
REMARK   98  A    between atoms: _242  and  _243
REMARK   99  A    between atoms: _242  and  _245
REMARK  100  A    between atoms: _245  and  _246
REMARK  101  A    between atoms: _248  and  _250
REMARK  102  A    between atoms: _250  and  _251
REMARK  103  A    between atoms: _250  and  _253
REMARK  104  A    between atoms: _253  and  _254
REMARK  105  A    between atoms: _260  and  _262
REMARK  106  A    between atoms: _262  and  _263
REMARK  107  A    between atoms: _265  and  _267
REMARK  108  A    between atoms: _267  and  _268
REMARK  109  A    between atoms: _267  and  _270
REMARK  110  A    between atoms: _270  and  _271
REMARK  111  A    between atoms: _274  and  _276
REMARK  112  A    between atoms: _276  and  _277
REMARK  113  A    between atoms: _276  and  _279
REMARK  114  A    between atoms: _279  and  _280
REMARK  115  A    between atoms: _283  and  _285
REMARK  116  A    between atoms: _285  and  _286
REMARK  117  A    between atoms: _285  and  _288
REMARK  118  A    between atoms: _288  and  _289
REMARK  119  A    between atoms: _292  and  _294
REMARK  120  A    between atoms: _294  and  _295
REMARK  121  A    between atoms: _297  and  _299
REMARK  122  A    between atoms: _299  and  _300
REMARK  123  A    between atoms: _299  and  _302
REMARK  124  A    between atoms: _302  and  _303
REMARK  125  A    between atoms: _313  and  _315
REMARK  126  A    between atoms: _315  and  _316
REMARK  127  A    between atoms: _315  and  _318
REMARK  128  A    between atoms: _318  and  _319
REMARK  129  A    between atoms: _322  and  _324
REMARK  130  A    between atoms: _324  and  _325
REMARK  131  A    between atoms: _324  and  _327
REMARK  132  A    between atoms: _327  and  _328
REMARK  133  A    between atoms: _331  and  _333
REMARK  134  A    between atoms: _333  and  _334
REMARK  135  A    between atoms: _333  and  _336
REMARK  136  A    between atoms: _336  and  _337
REMARK  137  A    between atoms: _339  and  _341
REMARK  138  A    between atoms: _341  and  _342
REMARK  139  A    between atoms: _341  and  _344
REMARK  140  A    between atoms: _344  and  _345
REMARK  141  A    between atoms: _348  and  _350
REMARK  142  A    between atoms: _350  and  _351
REMARK  143  A    between atoms: _350  and  _353
REMARK  144  A    between atoms: _353  and  _354
REMARK  145  A    between atoms: _357  and  _359
REMARK  146  A    between atoms: _359  and  _360
REMARK  147  A    between atoms: _359  and  _362
REMARK  148  A    between atoms: _362  and  _363
REMARK  149  A    between atoms: _368  and  _369
REMARK  150  A    between atoms: _371  and  _373
REMARK  151  A    between atoms: _373  and  _374
REMARK  152  A    between atoms: _373  and  _376
REMARK  153  A    between atoms: _376  and  _377
REMARK  154  A    between atoms: _387  and  _389
REMARK  155  A    between atoms: _389  and  _390
REMARK  156  A    between atoms: _389  and  _392
REMARK  157  A    between atoms: _392  and  _393
REMARK  158  A    between atoms: _398  and  _400
REMARK  159  A    between atoms: _400  and  _401
REMARK  160  A    between atoms: _400  and  _403
REMARK  161  A    between atoms: _403  and  _404
REMARK  162  A    between atoms: _407  and  _409
REMARK  163  A    between atoms: _409  and  _410
REMARK  164  A    between atoms: _409  and  _412
REMARK  165  A    between atoms: _415  and  _417
REMARK  166  A    between atoms: _417  and  _418
REMARK  167  A    between atoms: _417  and  _420
REMARK  168  A    between atoms: _420  and  _421
REMARK  169  A    between atoms: _424  and  _426
REMARK  170  A    between atoms: _426  and  _427
REMARK  171  A    between atoms: _426  and  _429
REMARK  172  A    between atoms: _429  and  _430
REMARK  173  A    between atoms: _432  and  _434
REMARK  174  A    between atoms: _434  and  _435
REMARK  175  A    between atoms: _437  and  _439
REMARK  176  A    between atoms: _439  and  _440
REMARK  177  A    between atoms: _439  and  _442
REMARK  178  A    between atoms: _442  and  _443
REMARK  179  A    between atoms: _446  and  _448
REMARK  180  A    between atoms: _448  and  _449
REMARK  181  A    between atoms: _448  and  _451
REMARK  182  A    between atoms: _451  and  _452
REMARK  183  A    between atoms: _454  and  _456
REMARK  184  A    between atoms: _456  and  _457
REMARK  185  A    between atoms: _460  and  _462
REMARK  186  A    between atoms: _462  and  _463
REMARK  187  A    between atoms: _462  and  _465
REMARK  188  A    between atoms: _465  and  _466
REMARK  189  A    between atoms: _469  and  _471
REMARK  190  A    between atoms: _471  and  _472
REMARK  191  A    between atoms: _471  and  _474
REMARK  192  A    between atoms: _474  and  _475
REMARK  193  A    between atoms: _478  and  _480
REMARK  194  A    between atoms: _480  and  _481
REMARK  195  A    between atoms: _480  and  _483
REMARK  196  A    between atoms: _487  and  _488
REMARK  197  A    between atoms: _493  and  _495
REMARK  198  A    between atoms: _495  and  _496
REMARK  199  A    between atoms: _495  and  _498
REMARK  200  A    between atoms: _498  and  _499
REMARK  201  A    between atoms: _504  and  _506
REMARK  202  A    between atoms: _506  and  _507
REMARK  203  A    between atoms: _506  and  _509
REMARK  204  A    between atoms: _509  and  _510
REMARK  205  A    between atoms: _513  and  _515
REMARK  206  A    between atoms: _515  and  _516
REMARK  207  A    between atoms: _515  and  _518
REMARK  208  A    between atoms: _518  and  _519
REMARK  209  A    between atoms: _522  and  _524
REMARK  210  A    between atoms: _524  and  _525
REMARK  211  A    between atoms: _524  and  _527
REMARK  212  A    between atoms: _527  and  _528
REMARK  213  A    between atoms: _531  and  _533
REMARK  214  A    between atoms: _533  and  _534
REMARK  215  A    between atoms: _533  and  _536
REMARK  216  A    between atoms: _536  and  _537
REMARK  217  A    between atoms: _543  and  _545
REMARK  218  A    between atoms: _545  and  _546
REMARK  219  A    between atoms: _545  and  _548
REMARK  220  A    between atoms: _548  and  _549
REMARK  221  A    between atoms: _552  and  _554
REMARK  222  A    between atoms: _554  and  _555
REMARK  223  A    between atoms: _554  and  _557
REMARK  224  A    between atoms: _557  and  _558
REMARK  225  A    between atoms: _564  and  _566
REMARK  226  A    between atoms: _566  and  _567
REMARK  227  A    between atoms: _566  and  _569
REMARK  228  A    between atoms: _569  and  _570
REMARK  229  A    between atoms: _573  and  _575
REMARK  230  A    between atoms: _575  and  _576
REMARK  231  A    between atoms: _575  and  _578
REMARK  232  A    between atoms: _578  and  _579
REMARK  233  A    between atoms: _582  and  _584
REMARK  234  A    between atoms: _584  and  _585
REMARK  235  A    between atoms: _587  and  _589
REMARK  236  A    between atoms: _589  and  _590
REMARK  237  A    between atoms: _589  and  _592
REMARK  238  A    between atoms: _592  and  _593
REMARK                            x       y       z     vdW  Elec       q    Type
REMARK                         _______ _______ _______ _____ _____    ______ ____
ROOT
ATOM      1  CA  ILE A   2      43.328  24.295   8.450  0.00  0.00    +0.148 C 
ENDROOT
BRANCH   1   4
ATOM      2  C   ASN A   1      41.784  22.412   8.640  0.00  0.00    +0.239 C 
ATOM      3  O   ASN A   1      41.464  22.681   9.802  0.00  0.00    -0.274 OA
ATOM      4  N   ILE A   2      42.618  23.158   7.929  0.00  0.00    -0.297 N 
ATOM      5  H   ILE A   2      42.768  22.905   6.931  0.00  0.00    +0.150 HD
BRANCH   2   6
ATOM      6  CA  ASN A   1      41.175  21.211   7.901  0.00  0.00    +0.154 C 
BRANCH   6   7
ATOM      7  N   ASN A   1      42.268  20.372   7.411  0.00  0.00    -0.238 NA
ATOM      8  H   ASN A   1      42.542  19.535   7.964  0.00  0.00    +0.142 HD
ENDBRANCH   6   7
BRANCH   6   9
ATOM      9  CB  ASN A   1      40.309  20.397   8.846  0.00  0.00    +0.111 C 
BRANCH   9  10
ATOM     10  CG  ASN A   1      38.888  20.860   8.854  0.00  0.00    +0.221 C 
ATOM     11  ND2 ASN A   1      38.028  20.086   9.509  0.00  0.00    -0.329 N 
ATOM     12 HD21 ASN A   1      38.363  19.227   9.990  0.00  0.00    +0.145 HD
ATOM     13 HD22 ASN A   1      37.020  20.340   9.541  0.00  0.00    +0.145 HD
ATOM     14  OD1 ASN A   1      38.551  21.900   8.259  0.00  0.00    -0.275 OA
ENDBRANCH   9  10
ENDBRANCH   6   9
ENDBRANCH   2   6
ENDBRANCH   1   4
BRANCH   1  15
ATOM     15  C   ILE A   2      43.280  25.414   7.416  0.00  0.00    +0.241 C 
ATOM     16  N   ILE A   3      43.132  26.662   7.850  0.00  0.00    -0.298 N 
ATOM     17  H   ILE A   3      43.006  26.844   8.866  0.00  0.00    +0.150 HD
ATOM     18  O   ILE A   2      43.317  25.140   6.227  0.00  0.00    -0.273 OA
BRANCH  16  19
ATOM     19  CA  ILE A   3      43.145  27.764   6.922  0.00  0.00    +0.137 C 
BRANCH  19  20
ATOM     20  C   ILE A   3      43.854  28.920   7.596  0.00  0.00    +0.227 C 
ATOM     21  O   ILE A   3      43.867  29.020   8.847  0.00  0.00    -0.286 OA
ENDBRANCH  19  20
BRANCH  19  22
ATOM     22  CB  ILE A   3      41.733  28.200   6.431  0.00  0.00    +0.026 C 
ATOM     23  CG2 ILE A   3      40.843  26.981   6.159  0.00  0.00    +0.002 C 
BRANCH  22  24
ATOM     24  CG1 ILE A   3      41.052  29.086   7.441  0.00  0.00    +0.002 C 
ATOM     25  CD1 ILE A   3      39.736  29.464   7.027  0.00  0.00    +0.000 C 
ENDBRANCH  22  24
ENDBRANCH  19  22
ENDBRANCH  16  19
ENDBRANCH   1  15
BRANCH   1  26
ATOM     26  CB  ILE A   2      44.794  23.852   8.646  0.00  0.00    +0.027 C 
ATOM     27  CG2 ILE A   2      45.758  25.032   8.768  0.00  0.00    +0.002 C 
BRANCH  26  28
ATOM     28  CG1 ILE A   2      44.872  22.857   9.813  0.00  0.00    +0.002 C 
ATOM     29  CD1 ILE A   2      46.257  22.350  10.031  0.00  0.00    +0.000 C 
ENDBRANCH  26  28
ENDBRANCH   1  26
TORSDOF 12
REMARK  Name = ../refined-set-2016/1lee/1lee_pocket.pdb
REMARK  238 active torsions:
REMARK  status: ('A' for Active; 'I' for Inactive)
REMARK    1  A    between atoms: _1  and  _3
REMARK    2  A    between atoms: _3  and  _4
REMARK    3  A    between atoms: _3  and  _6
REMARK    4  A    between atoms: _6  and  _7
REMARK    5  A    between atoms: _10  and  _12
REMARK    6  A    between atoms: _12  and  _13
REMARK    7  A    between atoms: _12  and  _15
REMARK    8  A    between atoms: _16  and  _17
REMARK    9  A    between atoms: _19  and  _21
REMARK   10  A    between atoms: _21  and  _22
REMARK   11  A    between atoms: _21  and  _24
REMARK   12  A    between atoms: _24  and  _25
REMARK   13  A    between atoms: _30  and  _31
REMARK   14  A    between atoms: _33  and  _35
REMARK   15  A    between atoms: _35  and  _36
REMARK   16  A    between atoms: _35  and  _38
REMARK   17  A    between atoms: _38  and  _39
REMARK   18  A    between atoms: _42  and  _44
REMARK   19  A    between atoms: _44  and  _45
REMARK   20  A    between atoms: _44  and  _47
REMARK   21  A    between atoms: _47  and  _48
REMARK   22  A    between atoms: _51  and  _53
REMARK   23  A    between atoms: _53  and  _54
REMARK   24  A    between atoms: _53  and  _56
REMARK   25  A    between atoms: _56  and  _57
REMARK   26  A    between atoms: _60  and  _62
REMARK   27  A    between atoms: _62  and  _63
REMARK   28  A    between atoms: _62  and  _65
REMARK   29  A    between atoms: _65  and  _66
REMARK   30  A    between atoms: _69  and  _71
REMARK   31  A    between atoms: _71  and  _72
REMARK   32  A    between atoms: _74  and  _76
REMARK   33  A    between atoms: _76  and  _77
REMARK   34  A    between atoms: _76  and  _79
REMARK   35  A    between atoms: _79  and  _80
REMARK   36  A    between atoms: _82  and  _84
REMARK   37  A    between atoms: _84  and  _85
REMARK   38  A    between atoms: _88  and  _90
REMARK   39  A    between atoms: _90  and  _91
REMARK   40  A    between atoms: _90  and  _93
REMARK   41  A    between atoms: _93  and  _94
REMARK   42  A    between atoms: _99  and  _101
REMARK   43  A    between atoms: _101  and  _102
REMARK   44  A    between atoms: _101  and  _104
REMARK   45  A    between atoms: _104  and  _105
REMARK   46  A    between atoms: _115  and  _117
REMARK   47  A    between atoms: _117  and  _118
REMARK   48  A    between atoms: _117  and  _120
REMARK   49  A    between atoms: _123  and  _125
REMARK   50  A    between atoms: _125  and  _126
REMARK   51  A    between atoms: _125  and  _128
REMARK   52  A    between atoms: _128  and  _129
REMARK   53  A    between atoms: _129  and  _130
REMARK   54  A    between atoms: _133  and  _135
REMARK   55  A    between atoms: _135  and  _136
REMARK   56  A    between atoms: _135  and  _138
REMARK   57  A    between atoms: _138  and  _139
REMARK   58  A    between atoms: _139  and  _140
REMARK   59  A    between atoms: _142  and  _144
REMARK   60  A    between atoms: _144  and  _145
REMARK   61  A    between atoms: _144  and  _147
REMARK   62  A    between atoms: _147  and  _148
REMARK   63  A    between atoms: _153  and  _155
REMARK   64  A    between atoms: _155  and  _156
REMARK   65  A    between atoms: _155  and  _158
REMARK   66  A    between atoms: _158  and  _159
REMARK   67  A    between atoms: _164  and  _165
REMARK   68  A    between atoms: _167  and  _169
REMARK   69  A    between atoms: _169  and  _170
REMARK   70  A    between atoms: _169  and  _172
REMARK   71  A    between atoms: _175  and  _177
REMARK   72  A    between atoms: _177  and  _178
REMARK   73  A    between atoms: _177  and  _180
REMARK   74  A    between atoms: _180  and  _181
REMARK   75  A    between atoms: _183  and  _185
REMARK   76  A    between atoms: _185  and  _186
REMARK   77  A    between atoms: _188  and  _190
REMARK   78  A    between atoms: _190  and  _191
REMARK   79  A    between atoms: _190  and  _193
REMARK   80  A    between atoms: _193  and  _194
REMARK   81  A    between atoms: _197  and  _199
REMARK   82  A    between atoms: _199  and  _200
REMARK   83  A    between atoms: _199  and  _202
REMARK   84  A    between atoms: _205  and  _207
REMARK   85  A    between atoms: _207  and  _208
REMARK   86  A    between atoms: _207  and  _210
REMARK   87  A    between atoms: _210  and  _211
REMARK   88  A    between atoms: _217  and  _219
REMARK   89  A    between atoms: _219  and  _220
REMARK   90  A    between atoms: _219  and  _222
REMARK   91  A    between atoms: _222  and  _223
REMARK   92  A    between atoms: _226  and  _228
REMARK   93  A    between atoms: _228  and  _229
REMARK   94  A    between atoms: _228  and  _231
REMARK   95  A    between atoms: _231  and  _232
REMARK   96  A    between atoms: _237  and  _238
REMARK   97  A    between atoms: _240  and  _242
REMARK   98  A    between atoms: _242  and  _243
REMARK   99  A    between atoms: _242  and  _245
REMARK  100  A    between atoms: _245  and  _246
REMARK  101  A    between atoms: _248  and  _250
REMARK  102  A    between atoms: _250  and  _251
REMARK  103  A    between atoms: _250  and  _253
REMARK  104  A    between atoms: _253  and  _254
REMARK  105  A    between atoms: _260  and  _262
REMARK  106  A    between atoms: _262  and  _263
REMARK  107  A    between atoms: _265  and  _267
REMARK  108  A    between atoms: _267  and  _268
REMARK  109  A    between atoms: _267  and  _270
REMARK  110  A    between atoms: _270  and  _271
REMARK  111  A    between atoms: _274  and  _276
REMARK  112  A    between atoms: _276  and  _277
REMARK  113  A    between atoms: _276  and  _279
REMARK  114  A    between atoms: _279  and  _280
REMARK  115  A    between atoms: _283  and  _285
REMARK  116  A    between atoms: _285  and  _286
REMARK  117  A    between atoms: _285  and  _288
REMARK  118  A    between atoms: _288  and  _289
REMARK  119  A    between atoms: _292  and  _294
REMARK  120  A    between atoms: _294  and  _295
REMARK  121  A    between atoms: _297  and  _299
REMARK  122  A    between atoms: _299  and  _300
REMARK  123  A    between atoms: _299  and  _302
REMARK  124  A    between atoms: _302  and  _303
REMARK  125  A    between atoms: _313  and  _315
REMARK  126  A    between atoms: _315  and  _316
REMARK  127  A    between atoms: _315  and  _318
REMARK  128  A    between atoms: _318  and  _319
REMARK  129  A    between atoms: _322  and  _324
REMARK  130  A    between atoms: _324  and  _325
REMARK  131  A    between atoms: _324  and  _327
REMARK  132  A    between atoms: _327  and  _328
REMARK  133  A    between atoms: _331  and  _333
REMARK  134  A    between atoms: _333  and  _334
REMARK  135  A    between atoms: _333  and  _336
REMARK  136  A    between atoms: _336  and  _337
REMARK  137  A    between atoms: _339  and  _341
REMARK  138  A    between atoms: _341  and  _342
REMARK  139  A    between atoms: _341  and  _344
REMARK  140  A    between atoms: _344  and  _345
REMARK  141  A    between atoms: _348  and  _350
REMARK  142  A    between atoms: _350  and  _351
REMARK  143  A    between atoms: _350  and  _353
REMARK  144  A    between atoms: _353  and  _354
REMARK  145  A    between atoms: _357  and  _359
REMARK  146  A    between atoms: _359  and  _360
REMARK  147  A    between atoms: _359  and  _362
REMARK  148  A    between atoms: _362  and  _363
REMARK  149  A    between atoms: _368  and  _369
REMARK  150  A    between atoms: _371  and  _373
REMARK  151  A    between atoms: _373  and  _374
REMARK  152  A    between atoms: _373  and  _376
REMARK  153  A    between atoms: _376  and  _377
REMARK  154  A    between atoms: _387  and  _389
REMARK  155  A    between atoms: _389  and  _390
REMARK  156  A    between atoms: _389  and  _392
REMARK  157  A    between atoms: _392  and  _393
REMARK  158  A    between atoms: _398  and  _400
REMARK  159  A    between atoms: _400  and  _401
REMARK  160  A    between atoms: _400  and  _403
REMARK  161  A    between atoms: _403  and  _404
REMARK  162  A    between atoms: _407  and  _409
REMARK  163  A    between atoms: _409  and  _410
REMARK  164  A    between atoms: _409  and  _412
REMARK  165  A    between atoms: _415  and  _417
REMARK  166  A    between atoms: _417  and  _418
REMARK  167  A    between atoms: _417  and  _420
REMARK  168  A    between atoms: _420  and  _421
REMARK  169  A    between atoms: _424  and  _426
REMARK  170  A    between atoms: _426  and  _427
REMARK  171  A    between atoms: _426  and  _429
REMARK  172  A    between atoms: _429  and  _430
REMARK  173  A    between atoms: _432  and  _434
REMARK  174  A    between atoms: _434  and  _435
REMARK  175  A    between atoms: _437  and  _439
REMARK  176  A    between atoms: _439  and  _440
REMARK  177  A    between atoms: _439  and  _442
REMARK  178  A    between atoms: _442  and  _443
REMARK  179  A    between atoms: _446  and  _448
REMARK  180  A    between atoms: _448  and  _449
REMARK  181  A    between atoms: _448  and  _451
REMARK  182  A    between atoms: _451  and  _452
REMARK  183  A    between atoms: _454  and  _456
REMARK  184  A    between atoms: _456  and  _457
REMARK  185  A    between atoms: _460  and  _462
REMARK  186  A    between atoms: _462  and  _463
REMARK  187  A    between atoms: _462  and  _465
REMARK  188  A    between atoms: _465  and  _466
REMARK  189  A    between atoms: _469  and  _471
REMARK  190  A    between atoms: _471  and  _472
REMARK  191  A    between atoms: _471  and  _474
REMARK  192  A    between atoms: _474  and  _475
REMARK  193  A    between atoms: _478  and  _480
REMARK  194  A    between atoms: _480  and  _481
REMARK  195  A    between atoms: _480  and  _483
REMARK  196  A    between atoms: _487  and  _488
REMARK  197  A    between atoms: _493  and  _495
REMARK  198  A    between atoms: _495  and  _496
REMARK  199  A    between atoms: _495  and  _498
REMARK  200  A    between atoms: _498  and  _499
REMARK  201  A    between atoms: _504  and  _506
REMARK  202  A    between atoms: _506  and  _507
REMARK  203  A    between atoms: _506  and  _509
REMARK  204  A    between atoms: _509  and  _510
REMARK  205  A    between atoms: _513  and  _515
REMARK  206  A    between atoms: _515  and  _516
REMARK  207  A    between atoms: _515  and  _518
REMARK  208  A    between atoms: _518  and  _519
REMARK  209  A    between atoms: _522  and  _524
REMARK  210  A    between atoms: _524  and  _525
REMARK  211  A    between atoms: _524  and  _527
REMARK  212  A    between atoms: _527  and  _528
REMARK  213  A    between atoms: _531  and  _533
REMARK  214  A    between atoms: _533  and  _534
REMARK  215  A    between atoms: _533  and  _536
REMARK  216  A    between atoms: _536  and  _537
REMARK  217  A    between atoms: _543  and  _545
REMARK  218  A    between atoms: _545  and  _546
REMARK  219  A    between atoms: _545  and  _548
REMARK  220  A    between atoms: _548  and  _549
REMARK  221  A    between atoms: _552  and  _554
REMARK  222  A    between atoms: _554  and  _555
REMARK  223  A    between atoms: _554  and  _557
REMARK  224  A    between atoms: _557  and  _558
REMARK  225  A    between atoms: _564  and  _566
REMARK  226  A    between atoms: _566  and  _567
REMARK  227  A    between atoms: _566  and  _569
REMARK  228  A    between atoms: _569  and  _570
REMARK  229  A    between atoms: _573  and  _575
REMARK  230  A    between atoms: _575  and  _576
REMARK  231  A    between atoms: _575  and  _578
REMARK  232  A    between atoms: _578  and  _579
REMARK  233  A    between atoms: _582  and  _584
REMARK  234  A    between atoms: _584  and  _585
REMARK  235  A    between atoms: _587  and  _589
REMARK  236  A    between atoms: _589  and  _590
REMARK  237  A    between atoms: _589  and  _592
REMARK  238  A    between atoms: _592  and  _593
REMARK                            x       y       z     vdW  Elec       q    Type
REMARK                         _______ _______ _______ _____ _____    ______ ____
ROOT
ATOM      1  CA  LEU A   1      43.493  33.770   8.882  0.00  0.00    +0.133 C 
ENDROOT
BRANCH   1   2
ATOM      2  N   LEU A   1      44.396  32.658   8.616  0.00  0.00    -0.239 NA
ATOM      3  H   LEU A   1      45.079  32.362   9.342  0.00  0.00    +0.142 HD
ENDBRANCH   1   2
BRANCH   1   4
ATOM      4  C   LEU A   1      44.195  34.706   9.875  0.00  0.00    +0.224 C 
ATOM      5  O   LEU A   1      44.776  34.264  10.878  0.00  0.00    -0.287 OA
ENDBRANCH   1   4
BRANCH   1   6
ATOM      6  CB  LEU A   1      42.137  33.219   9.401  0.00  0.00    +0.025 C 
BRANCH   6   7
ATOM      7  CG  LEU A   1      41.008  34.194   9.668  0.00  0.00    +0.002 C 
ATOM      8  CD2 LEU A   1      39.800  33.415  10.130  0.00  0.00    +0.000 C 
ATOM      9  CD1 LEU A   1      40.677  34.979   8.408  0.00  0.00    +0.000 C 
ENDBRANCH   6   7
ENDBRANCH   1   6
TORSDOF 4
REMARK  Name = ../refined-set-2016/1lee/1lee_pocket.pdb
REMARK  238 active torsions:
REMARK  status: ('A' for Active; 'I' for Inactive)
REMARK    1  A    between atoms: _1  and  _3
REMARK    2  A    between atoms: _3  and  _4
REMARK    3  A    between atoms: _3  and  _6
REMARK    4  A    between atoms: _6  and  _7
REMARK    5  A    between atoms: _10  and  _12
REMARK    6  A    between atoms: _12  and  _13
REMARK    7  A    between atoms: _12  and  _15
REMARK    8  A    between atoms: _16  and  _17
REMARK    9  A    between atoms: _19  and  _21
REMARK   10  A    between atoms: _21  and  _22
REMARK   11  A    between atoms: _21  and  _24
REMARK   12  A    between atoms: _24  and  _25
REMARK   13  A    between atoms: _30  and  _31
REMARK   14  A    between atoms: _33  and  _35
REMARK   15  A    between atoms: _35  and  _36
REMARK   16  A    between atoms: _35  and  _38
REMARK   17  A    between atoms: _38  and  _39
REMARK   18  A    between atoms: _42  and  _44
REMARK   19  A    between atoms: _44  and  _45
REMARK   20  A    between atoms: _44  and  _47
REMARK   21  A    between atoms: _47  and  _48
REMARK   22  A    between atoms: _51  and  _53
REMARK   23  A    between atoms: _53  and  _54
REMARK   24  A    between atoms: _53  and  _56
REMARK   25  A    between atoms: _56  and  _57
REMARK   26  A    between atoms: _60  and  _62
REMARK   27  A    between atoms: _62  and  _63
REMARK   28  A    between atoms: _62  and  _65
REMARK   29  A    between atoms: _65  and  _66
REMARK   30  A    between atoms: _69  and  _71
REMARK   31  A    between atoms: _71  and  _72
REMARK   32  A    between atoms: _74  and  _76
REMARK   33  A    between atoms: _76  and  _77
REMARK   34  A    between atoms: _76  and  _79
REMARK   35  A    between atoms: _79  and  _80
REMARK   36  A    between atoms: _82  and  _84
REMARK   37  A    between atoms: _84  and  _85
REMARK   38  A    between atoms: _88  and  _90
REMARK   39  A    between atoms: _90  and  _91
REMARK   40  A    between atoms: _90  and  _93
REMARK   41  A    between atoms: _93  and  _94
REMARK   42  A    between atoms: _99  and  _101
REMARK   43  A    between atoms: _101  and  _102
REMARK   44  A    between atoms: _101  and  _104
REMARK   45  A    between atoms: _104  and  _105
REMARK   46  A    between atoms: _115  and  _117
REMARK   47  A    between atoms: _117  and  _118
REMARK   48  A    between atoms: _117  and  _120
REMARK   49  A    between atoms: _123  and  _125
REMARK   50  A    between atoms: _125  and  _126
REMARK   51  A    between atoms: _125  and  _128
REMARK   52  A    between atoms: _128  and  _129
REMARK   53  A    between atoms: _129  and  _130
REMARK   54  A    between atoms: _133  and  _135
REMARK   55  A    between atoms: _135  and  _136
REMARK   56  A    between atoms: _135  and  _138
REMARK   57  A    between atoms: _138  and  _139
REMARK   58  A    between atoms: _139  and  _140
REMARK   59  A    between atoms: _142  and  _144
REMARK   60  A    between atoms: _144  and  _145
REMARK   61  A    between atoms: _144  and  _147
REMARK   62  A    between atoms: _147  and  _148
REMARK   63  A    between atoms: _153  and  _155
REMARK   64  A    between atoms: _155  and  _156
REMARK   65  A    between atoms: _155  and  _158
REMARK   66  A    between atoms: _158  and  _159
REMARK   67  A    between atoms: _164  and  _165
REMARK   68  A    between atoms: _167  and  _169
REMARK   69  A    between atoms: _169  and  _170
REMARK   70  A    between atoms: _169  and  _172
REMARK   71  A    between atoms: _175  and  _177
REMARK   72  A    between atoms: _177  and  _178
REMARK   73  A    between atoms: _177  and  _180
REMARK   74  A    between atoms: _180  and  _181
REMARK   75  A    between atoms: _183  and  _185
REMARK   76  A    between atoms: _185  and  _186
REMARK   77  A    between atoms: _188  and  _190
REMARK   78  A    between atoms: _190  and  _191
REMARK   79  A    between atoms: _190  and  _193
REMARK   80  A    between atoms: _193  and  _194
REMARK   81  A    between atoms: _197  and  _199
REMARK   82  A    between atoms: _199  and  _200
REMARK   83  A    between atoms: _199  and  _202
REMARK   84  A    between atoms: _205  and  _207
REMARK   85  A    between atoms: _207  and  _208
REMARK   86  A    between atoms: _207  and  _210
REMARK   87  A    between atoms: _210  and  _211
REMARK   88  A    between atoms: _217  and  _219
REMARK   89  A    between atoms: _219  and  _220
REMARK   90  A    between atoms: _219  and  _222
REMARK   91  A    between atoms: _222  and  _223
REMARK   92  A    between atoms: _226  and  _228
REMARK   93  A    between atoms: _228  and  _229
REMARK   94  A    between atoms: _228  and  _231
REMARK   95  A    between atoms: _231  and  _232
REMARK   96  A    between atoms: _237  and  _238
REMARK   97  A    between atoms: _240  and  _242
REMARK   98  A    between atoms: _242  and  _243
REMARK   99  A    between atoms: _242  and  _245
REMARK  100  A    between atoms: _245  and  _246
REMARK  101  A    between atoms: _248  and  _250
REMARK  102  A    between atoms: _250  and  _251
REMARK  103  A    between atoms: _250  and  _253
REMARK  104  A    between atoms: _253  and  _254
REMARK  105  A    between atoms: _260  and  _262
REMARK  106  A    between atoms: _262  and  _263
REMARK  107  A    between atoms: _265  and  _267
REMARK  108  A    between atoms: _267  and  _268
REMARK  109  A    between atoms: _267  and  _270
REMARK  110  A    between atoms: _270  and  _271
REMARK  111  A    between atoms: _274  and  _276
REMARK  112  A    between atoms: _276  and  _277
REMARK  113  A    between atoms: _276  and  _279
REMARK  114  A    between atoms: _279  and  _280
REMARK  115  A    between atoms: _283  and  _285
REMARK  116  A    between atoms: _285  and  _286
REMARK  117  A    between atoms: _285  and  _288
REMARK  118  A    between atoms: _288  and  _289
REMARK  119  A    between atoms: _292  and  _294
REMARK  120  A    between atoms: _294  and  _295
REMARK  121  A    between atoms: _297  and  _299
REMARK  122  A    between atoms: _299  and  _300
REMARK  123  A    between atoms: _299  and  _302
REMARK  124  A    between atoms: _302  and  _303
REMARK  125  A    between atoms: _313  and  _315
REMARK  126  A    between atoms: _315  and  _316
REMARK  127  A    between atoms: _315  and  _318
REMARK  128  A    between atoms: _318  and  _319
REMARK  129  A    between atoms: _322  and  _324
REMARK  130  A    between atoms: _324  and  _325
REMARK  131  A    between atoms: _324  and  _327
REMARK  132  A    between atoms: _327  and  _328
REMARK  133  A    between atoms: _331  and  _333
REMARK  134  A    between atoms: _333  and  _334
REMARK  135  A    between atoms: _333  and  _336
REMARK  136  A    between atoms: _336  and  _337
REMARK  137  A    between atoms: _339  and  _341
REMARK  138  A    between atoms: _341  and  _342
REMARK  139  A    between atoms: _341  and  _344
REMARK  140  A    between atoms: _344  and  _345
REMARK  141  A    between atoms: _348  and  _350
REMARK  142  A    between atoms: _350  and  _351
REMARK  143  A    between atoms: _350  and  _353
REMARK  144  A    between atoms: _353  and  _354
REMARK  145  A    between atoms: _357  and  _359
REMARK  146  A    between atoms: _359  and  _360
REMARK  147  A    between atoms: _359  and  _362
REMARK  148  A    between atoms: _362  and  _363
REMARK  149  A    between atoms: _368  and  _369
REMARK  150  A    between atoms: _371  and  _373
REMARK  151  A    between atoms: _373  and  _374
REMARK  152  A    between atoms: _373  and  _376
REMARK  153  A    between atoms: _376  and  _377
REMARK  154  A    between atoms: _387  and  _389
REMARK  155  A    between atoms: _389  and  _390
REMARK  156  A    between atoms: _389  and  _392
REMARK  157  A    between atoms: _392  and  _393
REMARK  158  A    between atoms: _398  and  _400
REMARK  159  A    between atoms: _400  and  _401
REMARK  160  A    between atoms: _400  and  _403
REMARK  161  A    between atoms: _403  and  _404
REMARK  162  A    between atoms: _407  and  _409
REMARK  163  A    between atoms: _409  and  _410
REMARK  164  A    between atoms: _409  and  _412
REMARK  165  A    between atoms: _415  and  _417
REMARK  166  A    between atoms: _417  and  _418
REMARK  167  A    between atoms: _417  and  _420
REMARK  168  A    between atoms: _420  and  _421
REMARK  169  A    between atoms: _424  and  _426
REMARK  170  A    between atoms: _426  and  _427
REMARK  171  A    between atoms: _426  and  _429
REMARK  172  A    between atoms: _429  and  _430
REMARK  173  A    between atoms: _432  and  _434
REMARK  174  A    between atoms: _434  and  _435
REMARK  175  A    between atoms: _437  and  _439
REMARK  176  A    between atoms: _439  and  _440
REMARK  177  A    between atoms: _439  and  _442
REMARK  178  A    between atoms: _442  and  _443
REMARK  179  A    between atoms: _446  and  _448
REMARK  180  A    between atoms: _448  and  _449
REMARK  181  A    between atoms: _448  and  _451
REMARK  182  A    between atoms: _451  and  _452
REMARK  183  A    between atoms: _454  and  _456
REMARK  184  A    between atoms: _456  and  _457
REMARK  185  A    between atoms: _460  and  _462
REMARK  186  A    between atoms: _462  and  _463
REMARK  187  A    between atoms: _462  and  _465
REMARK  188  A    between atoms: _465  and  _466
REMARK  189  A    between atoms: _469  and  _471
REMARK  190  A    between atoms: _471  and  _472
REMARK  191  A    between atoms: _471  and  _474
REMARK  192  A    between atoms: _474  and  _475
REMARK  193  A    between atoms: _478  and  _480
REMARK  194  A    between atoms: _480  and  _481
REMARK  195  A    between atoms: _480  and  _483
REMARK  196  A    between atoms: _487  and  _488
REMARK  197  A    between atoms: _493  and  _495
REMARK  198  A    between atoms: _495  and  _496
REMARK  199  A    between atoms: _495  and  _498
REMARK  200  A    between atoms: _498  and  _499
REMARK  201  A    between atoms: _504  and  _506
REMARK  202  A    between atoms: _506  and  _507
REMARK  203  A    between atoms: _506  and  _509
REMARK  204  A    between atoms: _509  and  _510
REMARK  205  A    between atoms: _513  and  _515
REMARK  206  A    between atoms: _515  and  _516
REMARK  207  A    between atoms: _515  and  _518
REMARK  208  A    between atoms: _518  and  _519
REMARK  209  A    between atoms: _522  and  _524
REMARK  210  A    between atoms: _524  and  _525
REMARK  211  A    between atoms: _524  and  _527
REMARK  212  A    between atoms: _527  and  _528
REMARK  213  A    between atoms: _531  and  _533
REMARK  214  A    between atoms: _533  and  _534
REMARK  215  A    between atoms: _533  and  _536
REMARK  216  A    between atoms: _536  and  _537
REMARK  217  A    between atoms: _543  and  _545
REMARK  218  A    between atoms: _545  and  _546
REMARK  219  A    between atoms: _545  and  _548
REMARK  220  A    between atoms: _548  and  _549
REMARK  221  A    between atoms: _552  and  _554
REMARK  222  A    between atoms: _554  and  _555
REMARK  223  A    between atoms: _554  and  _557
REMARK  224  A    between atoms: _557  and  _558
REMARK  225  A    between atoms: _564  and  _566
REMARK  226  A    between atoms: _566  and  _567
REMARK  227  A    between atoms: _566  and  _569
REMARK  228  A    between atoms: _569  and  _570
REMARK  229  A    between atoms: _573  and  _575
REMARK  230  A    between atoms: _575  and  _576
REMARK  231  A    between atoms: _575  and  _578
REMARK  232  A    between atoms: _578  and  _579
REMARK  233  A    between atoms: _582  and  _584
REMARK  234  A    between atoms: _584  and  _585
REMARK  235  A    between atoms: _587  and  _589
REMARK  236  A    between atoms: _589  and  _590
REMARK  237  A    between atoms: _589  and  _592
REMARK  238  A    between atoms: _592  and  _593
REMARK                            x       y       z     vdW  Elec       q    Type
REMARK                         _______ _______ _______ _____ _____    ______ ____
ROOT
ATOM      1  CB  PHE A   1      43.086  38.437  14.385  0.00  0.00    +0.051 C 
ENDROOT
BRANCH   1   2
ATOM      2  CG  PHE A   1      42.080  37.309  14.194  0.00  0.00    -0.020 A 
ATOM      3  CD2 PHE A   1      40.809  37.404  14.762  0.00  0.00    -0.004 A 
ATOM      4  CE2 PHE A   1      39.907  36.339  14.663  0.00  0.00    -0.000 A 
ATOM      5  CZ  PHE A   1      40.285  35.169  13.988  0.00  0.00    -0.000 A 
ATOM      6  CE1 PHE A   1      41.555  35.072  13.418  0.00  0.00    -0.000 A 
ATOM      7  CD1 PHE A   1      42.433  36.134  13.526  0.00  0.00    -0.004 A 
ENDBRANCH   1   2
BRANCH   1   8
ATOM      8  CA  PHE A   1      43.562  39.133  13.087  0.00  0.00    +0.137 C 
BRANCH   8   9
ATOM      9  N   PHE A   1      44.291  38.205  12.229  0.00  0.00    -0.239 NA
ATOM     10  H   PHE A   1      45.108  37.703  12.632  0.00  0.00    +0.142 HD
ENDBRANCH   8   9
BRANCH   8  11
ATOM     11  C   PHE A   1      44.621  40.164  13.507  0.00  0.00    +0.224 C 
ATOM     12  O   PHE A   1      45.818  39.919  13.333  0.00  0.00    -0.287 OA
ENDBRANCH   8  11
ENDBRANCH   1   8
TORSDOF 4
REMARK  Name = ../refined-set-2016/1lee/1lee_pocket.pdb
REMARK  238 active torsions:
REMARK  status: ('A' for Active; 'I' for Inactive)
REMARK    1  A    between atoms: _1  and  _3
REMARK    2  A    between atoms: _3  and  _4
REMARK    3  A    between atoms: _3  and  _6
REMARK    4  A    between atoms: _6  and  _7
REMARK    5  A    between atoms: _10  and  _12
REMARK    6  A    between atoms: _12  and  _13
REMARK    7  A    between atoms: _12  and  _15
REMARK    8  A    between atoms: _16  and  _17
REMARK    9  A    between atoms: _19  and  _21
REMARK   10  A    between atoms: _21  and  _22
REMARK   11  A    between atoms: _21  and  _24
REMARK   12  A    between atoms: _24  and  _25
REMARK   13  A    between atoms: _30  and  _31
REMARK   14  A    between atoms: _33  and  _35
REMARK   15  A    between atoms: _35  and  _36
REMARK   16  A    between atoms: _35  and  _38
REMARK   17  A    between atoms: _38  and  _39
REMARK   18  A    between atoms: _42  and  _44
REMARK   19  A    between atoms: _44  and  _45
REMARK   20  A    between atoms: _44  and  _47
REMARK   21  A    between atoms: _47  and  _48
REMARK   22  A    between atoms: _51  and  _53
REMARK   23  A    between atoms: _53  and  _54
REMARK   24  A    between atoms: _53  and  _56
REMARK   25  A    between atoms: _56  and  _57
REMARK   26  A    between atoms: _60  and  _62
REMARK   27  A    between atoms: _62  and  _63
REMARK   28  A    between atoms: _62  and  _65
REMARK   29  A    between atoms: _65  and  _66
REMARK   30  A    between atoms: _69  and  _71
REMARK   31  A    between atoms: _71  and  _72
REMARK   32  A    between atoms: _74  and  _76
REMARK   33  A    between atoms: _76  and  _77
REMARK   34  A    between atoms: _76  and  _79
REMARK   35  A    between atoms: _79  and  _80
REMARK   36  A    between atoms: _82  and  _84
REMARK   37  A    between atoms: _84  and  _85
REMARK   38  A    between atoms: _88  and  _90
REMARK   39  A    between atoms: _90  and  _91
REMARK   40  A    between atoms: _90  and  _93
REMARK   41  A    between atoms: _93  and  _94
REMARK   42  A    between atoms: _99  and  _101
REMARK   43  A    between atoms: _101  and  _102
REMARK   44  A    between atoms: _101  and  _104
REMARK   45  A    between atoms: _104  and  _105
REMARK   46  A    between atoms: _115  and  _117
REMARK   47  A    between atoms: _117  and  _118
REMARK   48  A    between atoms: _117  and  _120
REMARK   49  A    between atoms: _123  and  _125
REMARK   50  A    between atoms: _125  and  _126
REMARK   51  A    between atoms: _125  and  _128
REMARK   52  A    between atoms: _128  and  _129
REMARK   53  A    between atoms: _129  and  _130
REMARK   54  A    between atoms: _133  and  _135
REMARK   55  A    between atoms: _135  and  _136
REMARK   56  A    between atoms: _135  and  _138
REMARK   57  A    between atoms: _138  and  _139
REMARK   58  A    between atoms: _139  and  _140
REMARK   59  A    between atoms: _142  and  _144
REMARK   60  A    between atoms: _144  and  _145
REMARK   61  A    between atoms: _144  and  _147
REMARK   62  A    between atoms: _147  and  _148
REMARK   63  A    between atoms: _153  and  _155
REMARK   64  A    between atoms: _155  and  _156
REMARK   65  A    between atoms: _155  and  _158
REMARK   66  A    between atoms: _158  and  _159
REMARK   67  A    between atoms: _164  and  _165
REMARK   68  A    between atoms: _167  and  _169
REMARK   69  A    between atoms: _169  and  _170
REMARK   70  A    between atoms: _169  and  _172
REMARK   71  A    between atoms: _175  and  _177
REMARK   72  A    between atoms: _177  and  _178
REMARK   73  A    between atoms: _177  and  _180
REMARK   74  A    between atoms: _180  and  _181
REMARK   75  A    between atoms: _183  and  _185
REMARK   76  A    between atoms: _185  and  _186
REMARK   77  A    between atoms: _188  and  _190
REMARK   78  A    between atoms: _190  and  _191
REMARK   79  A    between atoms: _190  and  _193
REMARK   80  A    between atoms: _193  and  _194
REMARK   81  A    between atoms: _197  and  _199
REMARK   82  A    between atoms: _199  and  _200
REMARK   83  A    between atoms: _199  and  _202
REMARK   84  A    between atoms: _205  and  _207
REMARK   85  A    between atoms: _207  and  _208
REMARK   86  A    between atoms: _207  and  _210
REMARK   87  A    between atoms: _210  and  _211
REMARK   88  A    between atoms: _217  and  _219
REMARK   89  A    between atoms: _219  and  _220
REMARK   90  A    between atoms: _219  and  _222
REMARK   91  A    between atoms: _222  and  _223
REMARK   92  A    between atoms: _226  and  _228
REMARK   93  A    between atoms: _228  and  _229
REMARK   94  A    between atoms: _228  and  _231
REMARK   95  A    between atoms: _231  and  _232
REMARK   96  A    between atoms: _237  and  _238
REMARK   97  A    between atoms: _240  and  _242
REMARK   98  A    between atoms: _242  and  _243
REMARK   99  A    between atoms: _242  and  _245
REMARK  100  A    between atoms: _245  and  _246
REMARK  101  A    between atoms: _248  and  _250
REMARK  102  A    between atoms: _250  and  _251
REMARK  103  A    between atoms: _250  and  _253
REMARK  104  A    between atoms: _253  and  _254
REMARK  105  A    between atoms: _260  and  _262
REMARK  106  A    between atoms: _262  and  _263
REMARK  107  A    between atoms: _265  and  _267
REMARK  108  A    between atoms: _267  and  _268
REMARK  109  A    between atoms: _267  and  _270
REMARK  110  A    between atoms: _270  and  _271
REMARK  111  A    between atoms: _274  and  _276
REMARK  112  A    between atoms: _276  and  _277
REMARK  113  A    between atoms: _276  and  _279
REMARK  114  A    between atoms: _279  and  _280
REMARK  115  A    between atoms: _283  and  _285
REMARK  116  A    between atoms: _285  and  _286
REMARK  117  A    between atoms: _285  and  _288
REMARK  118  A    between atoms: _288  and  _289
REMARK  119  A    between atoms: _292  and  _294
REMARK  120  A    between atoms: _294  and  _295
REMARK  121  A    between atoms: _297  and  _299
REMARK  122  A    between atoms: _299  and  _300
REMARK  123  A    between atoms: _299  and  _302
REMARK  124  A    between atoms: _302  and  _303
REMARK  125  A    between atoms: _313  and  _315
REMARK  126  A    between atoms: _315  and  _316
REMARK  127  A    between atoms: _315  and  _318
REMARK  128  A    between atoms: _318  and  _319
REMARK  129  A    between atoms: _322  and  _324
REMARK  130  A    between atoms: _324  and  _325
REMARK  131  A    between atoms: _324  and  _327
REMARK  132  A    between atoms: _327  and  _328
REMARK  133  A    between atoms: _331  and  _333
REMARK  134  A    between atoms: _333  and  _334
REMARK  135  A    between atoms: _333  and  _336
REMARK  136  A    between atoms: _336  and  _337
REMARK  137  A    between atoms: _339  and  _341
REMARK  138  A    between atoms: _341  and  _342
REMARK  139  A    between atoms: _341  and  _344
REMARK  140  A    between atoms: _344  and  _345
REMARK  141  A    between atoms: _348  and  _350
REMARK  142  A    between atoms: _350  and  _351
REMARK  143  A    between atoms: _350  and  _353
REMARK  144  A    between atoms: _353  and  _354
REMARK  145  A    between atoms: _357  and  _359
REMARK  146  A    between atoms: _359  and  _360
REMARK  147  A    between atoms: _359  and  _362
REMARK  148  A    between atoms: _362  and  _363
REMARK  149  A    between atoms: _368  and  _369
REMARK  150  A    between atoms: _371  and  _373
REMARK  151  A    between atoms: _373  and  _374
REMARK  152  A    between atoms: _373  and  _376
REMARK  153  A    between atoms: _376  and  _377
REMARK  154  A    between atoms: _387  and  _389
REMARK  155  A    between atoms: _389  and  _390
REMARK  156  A    between atoms: _389  and  _392
REMARK  157  A    between atoms: _392  and  _393
REMARK  158  A    between atoms: _398  and  _400
REMARK  159  A    between atoms: _400  and  _401
REMARK  160  A    between atoms: _400  and  _403
REMARK  161  A    between atoms: _403  and  _404
REMARK  162  A    between atoms: _407  and  _409
REMARK  163  A    between atoms: _409  and  _410
REMARK  164  A    between atoms: _409  and  _412
REMARK  165  A    between atoms: _415  and  _417
REMARK  166  A    between atoms: _417  and  _418
REMARK  167  A    between atoms: _417  and  _420
REMARK  168  A    between atoms: _420  and  _421
REMARK  169  A    between atoms: _424  and  _426
REMARK  170  A    between atoms: _426  and  _427
REMARK  171  A    between atoms: _426  and  _429
REMARK  172  A    between atoms: _429  and  _430
REMARK  173  A    between atoms: _432  and  _434
REMARK  174  A    between atoms: _434  and  _435
REMARK  175  A    between atoms: _437  and  _439
REMARK  176  A    between atoms: _439  and  _440
REMARK  177  A    between atoms: _439  and  _442
REMARK  178  A    between atoms: _442  and  _443
REMARK  179  A    between atoms: _446  and  _448
REMARK  180  A    between atoms: _448  and  _449
REMARK  181  A    between atoms: _448  and  _451
REMARK  182  A    between atoms: _451  and  _452
REMARK  183  A    between atoms: _454  and  _456
REMARK  184  A    between atoms: _456  and  _457
REMARK  185  A    between atoms: _460  and  _462
REMARK  186  A    between atoms: _462  and  _463
REMARK  187  A    between atoms: _462  and  _465
REMARK  188  A    between atoms: _465  and  _466
REMARK  189  A    between atoms: _469  and  _471
REMARK  190  A    between atoms: _471  and  _472
REMARK  191  A    between atoms: _471  and  _474
REMARK  192  A    between atoms: _474  and  _475
REMARK  193  A    between atoms: _478  and  _480
REMARK  194  A    between atoms: _480  and  _481
REMARK  195  A    between atoms: _480  and  _483
REMARK  196  A    between atoms: _487  and  _488
REMARK  197  A    between atoms: _493  and  _495
REMARK  198  A    between atoms: _495  and  _496
REMARK  199  A    between atoms: _495  and  _498
REMARK  200  A    between atoms: _498  and  _499
REMARK  201  A    between atoms: _504  and  _506
REMARK  202  A    between atoms: _506  and  _507
REMARK  203  A    between atoms: _506  and  _509
REMARK  204  A    between atoms: _509  and  _510
REMARK  205  A    between atoms: _513  and  _515
REMARK  206  A    between atoms: _515  and  _516
REMARK  207  A    between atoms: _515  and  _518
REMARK  208  A    between atoms: _518  and  _519
REMARK  209  A    between atoms: _522  and  _524
REMARK  210  A    between atoms: _524  and  _525
REMARK  211  A    between atoms: _524  and  _527
REMARK  212  A    between atoms: _527  and  _528
REMARK  213  A    between atoms: _531  and  _533
REMARK  214  A    between atoms: _533  and  _534
REMARK  215  A    between atoms: _533  and  _536
REMARK  216  A    between atoms: _536  and  _537
REMARK  217  A    between atoms: _543  and  _545
REMARK  218  A    between atoms: _545  and  _546
REMARK  219  A    between atoms: _545  and  _548
REMARK  220  A    between atoms: _548  and  _549
REMARK  221  A    between atoms: _552  and  _554
REMARK  222  A    between atoms: _554  and  _555
REMARK  223  A    between atoms: _554  and  _557
REMARK  224  A    between atoms: _557  and  _558
REMARK  225  A    between atoms: _564  and  _566
REMARK  226  A    between atoms: _566  and  _567
REMARK  227  A    between atoms: _566  and  _569
REMARK  228  A    between atoms: _569  and  _570
REMARK  229  A    between atoms: _573  and  _575
REMARK  230  A    between atoms: _575  and  _576
REMARK  231  A    between atoms: _575  and  _578
REMARK  232  A    between atoms: _578  and  _579
REMARK  233  A    between atoms: _582  and  _584
REMARK  234  A    between atoms: _584  and  _585
REMARK  235  A    between atoms: _587  and  _589
REMARK  236  A    between atoms: _589  and  _590
REMARK  237  A    between atoms: _589  and  _592
REMARK  238  A    between atoms: _592  and  _593
REMARK                            x       y       z     vdW  Elec       q    Type
REMARK                         _______ _______ _______ _____ _____    ______ ____
ROOT
ATOM      1  CA  ILE A   3      40.609  29.790  16.114  0.00  0.00    +0.149 C 
ENDROOT
BRANCH   1   4
ATOM      2  C   PHE A   2      42.833  30.556  16.620  0.00  0.00    +0.241 C 
ATOM      3  O   PHE A   2      42.425  30.973  17.705  0.00  0.00    -0.273 OA
ATOM      4  N   ILE A   3      41.984  30.096  15.711  0.00  0.00    -0.297 N 
ATOM      5  H   ILE A   3      42.290  29.955  14.727  0.00  0.00    +0.150 HD
BRANCH   2   6
ATOM      6  CA  PHE A   2      44.327  30.738  16.236  0.00  0.00    +0.153 C 
BRANCH   6   8
ATOM      7  C   THR A   1      44.924  33.064  15.936  0.00  0.00    +0.241 C 
ATOM      8  N   PHE A   2      44.624  32.058  16.728  0.00  0.00    -0.297 N 
ATOM      9  H   PHE A   2      44.600  32.223  17.755  0.00  0.00    +0.150 HD
ATOM     10  O   THR A   1      45.273  32.921  14.800  0.00  0.00    -0.274 OA
BRANCH   7  11
ATOM     11  CA  THR A   1      45.045  34.379  16.625  0.00  0.00    +0.172 C 
BRANCH  11  12
ATOM     12  N   THR A   1      46.141  35.158  16.094  0.00  0.00    -0.236 NA
ATOM     13  H   THR A   1      46.219  35.261  15.062  0.00  0.00    +0.142 HD
ENDBRANCH  11  12
BRANCH  11  14
ATOM     14  CB  THR A   1      43.701  35.165  16.437  0.00  0.00    +0.135 C 
ATOM     15  CG2 THR A   1      42.477  34.458  17.028  0.00  0.00    +0.034 C 
BRANCH  14  16
ATOM     16  OG1 THR A   1      43.831  36.442  17.043  0.00  0.00    -0.383 OA
ATOM     17  HG1 THR A   1      44.573  36.936  16.613  0.00  0.00    +0.210 HD
ENDBRANCH  14  16
ENDBRANCH  11  14
ENDBRANCH   7  11
ENDBRANCH   6   8
BRANCH   6  18
ATOM     18  CB  PHE A   2      45.133  29.670  17.006  0.00  0.00    +0.055 C 
BRANCH  18  19
ATOM     19  CG  PHE A   2      46.556  29.529  16.568  0.00  0.00    -0.020 A 
ATOM     20  CD2 PHE A   2      47.511  30.489  16.920  0.00  0.00    -0.004 A 
ATOM     21  CE2 PHE A   2      48.800  30.359  16.516  0.00  0.00    -0.000 A 
ATOM     22  CZ  PHE A   2      49.180  29.255  15.751  0.00  0.00    -0.000 A 
ATOM     23  CE1 PHE A   2      48.245  28.286  15.390  0.00  0.00    -0.000 A 
ATOM     24  CD1 PHE A   2      46.945  28.435  15.799  0.00  0.00    -0.004 A 
ENDBRANCH  18  19
ENDBRANCH   6  18
ENDBRANCH   2   6
ENDBRANCH   1   4
BRANCH   1  25
ATOM     25  C   ILE A   3      40.624  28.279  16.311  0.00  0.00    +0.241 C 
ATOM     26  N   LEU A   4      40.362  27.866  17.539  0.00  0.00    -0.297 N 
ATOM     27  H   LEU A   4      40.185  28.573  18.280  0.00  0.00    +0.150 HD
ATOM     28  O   ILE A   3      40.904  27.497  15.388  0.00  0.00    -0.273 OA
BRANCH  26  29
ATOM     29  CA  LEU A   4      40.314  26.469  17.884  0.00  0.00    +0.149 C 
BRANCH  29  30
ATOM     30  C   LEU A   4      38.879  26.020  17.621  0.00  0.00    +0.241 C 
ATOM     31  O   LEU A   4      38.046  25.996  18.519  0.00  0.00    -0.273 OA
ATOM     32  N   GLY A   5      38.616  25.689  16.361  0.00  0.00    -0.295 N 
ATOM     33  H   GLY A   5      39.375  25.736  15.652  0.00  0.00    +0.150 HD
BRANCH  32  34
ATOM     34  CA  GLY A   5      37.295  25.265  15.958  0.00  0.00    +0.176 C 
BRANCH  34  35
ATOM     35  C   GLY A   5      37.009  23.799  16.148  0.00  0.00    +0.243 C 
ATOM     36  O   GLY A   5      37.687  23.073  16.888  0.00  0.00    -0.273 OA
ATOM     37  N   ASP A   6      35.965  23.347  15.481  0.00  0.00    -0.297 N 
ATOM     38  H   ASP A   6      35.435  24.003  14.873  0.00  0.00    +0.150 HD
BRANCH  37  39
ATOM     39  CA  ASP A   6      35.532  21.968  15.567  0.00  0.00    +0.148 C 
BRANCH  39  40
ATOM     40  C   ASP A   6      36.591  20.872  15.627  0.00  0.00    +0.227 C 
ATOM     41  O   ASP A   6      36.392  19.885  16.329  0.00  0.00    -0.286 OA
ENDBRANCH  39  40
BRANCH  39  42
ATOM     42  CB  ASP A   6      34.525  21.649  14.452  0.00  0.00    +0.142 C 
BRANCH  42  43
ATOM     43  CG  ASP A   6      33.206  22.367  14.639  0.00  0.00    +0.367 C 
ATOM     44  OD2 ASP A   6      33.051  22.992  15.710  0.00  0.00    -0.246 OA
ATOM     45  OD1 ASP A   6      32.335  22.320  13.721  0.00  0.00    -0.246 OA
ENDBRANCH  42  43
ENDBRANCH  39  42
ENDBRANCH  37  39
ENDBRANCH  34  35
ENDBRANCH  32  34
ENDBRANCH  29  30
BRANCH  29  46
ATOM     46  CB  LEU A   4      40.730  26.293  19.349  0.00  0.00    +0.029 C 
BRANCH  46  47
ATOM     47  CG  LEU A   4      42.171  25.876  19.682  0.00  0.00    +0.002 C 
ATOM     48  CD2 LEU A   4      42.634  26.459  21.050  0.00  0.00    +0.000 C 
ATOM     49  CD1 LEU A   4      43.170  26.179  18.575  0.00  0.00    +0.000 C 
ENDBRANCH  46  47
ENDBRANCH  29  46
ENDBRANCH  26  29
ENDBRANCH   1  25
BRANCH   1  50
ATOM     50  CB  ILE A   3      39.453  30.138  15.076  0.00  0.00    +0.027 C 
ATOM     51  CG2 ILE A   3      38.119  29.586  15.603  0.00  0.00    +0.002 C 
BRANCH  50  52
ATOM     52  CG1 ILE A   3      39.300  31.646  14.859  0.00  0.00    +0.002 C 
ATOM     53  CD1 ILE A   3      38.278  31.972  13.710  0.00  0.00    +0.000 C 
ENDBRANCH  50  52
ENDBRANCH   1  50
TORSDOF 22
REMARK  Name = ../refined-set-2016/1lee/1lee_pocket.pdb
REMARK  238 active torsions:
REMARK  status: ('A' for Active; 'I' for Inactive)
REMARK    1  A    between atoms: _1  and  _3
REMARK    2  A    between atoms: _3  and  _4
REMARK    3  A    between atoms: _3  and  _6
REMARK    4  A    between atoms: _6  and  _7
REMARK    5  A    between atoms: _10  and  _12
REMARK    6  A    between atoms: _12  and  _13
REMARK    7  A    between atoms: _12  and  _15
REMARK    8  A    between atoms: _16  and  _17
REMARK    9  A    between atoms: _19  and  _21
REMARK   10  A    between atoms: _21  and  _22
REMARK   11  A    between atoms: _21  and  _24
REMARK   12  A    between atoms: _24  and  _25
REMARK   13  A    between atoms: _30  and  _31
REMARK   14  A    between atoms: _33  and  _35
REMARK   15  A    between atoms: _35  and  _36
REMARK   16  A    between atoms: _35  and  _38
REMARK   17  A    between atoms: _38  and  _39
REMARK   18  A    between atoms: _42  and  _44
REMARK   19  A    between atoms: _44  and  _45
REMARK   20  A    between atoms: _44  and  _47
REMARK   21  A    between atoms: _47  and  _48
REMARK   22  A    between atoms: _51  and  _53
REMARK   23  A    between atoms: _53  and  _54
REMARK   24  A    between atoms: _53  and  _56
REMARK   25  A    between atoms: _56  and  _57
REMARK   26  A    between atoms: _60  and  _62
REMARK   27  A    between atoms: _62  and  _63
REMARK   28  A    between atoms: _62  and  _65
REMARK   29  A    between atoms: _65  and  _66
REMARK   30  A    between atoms: _69  and  _71
REMARK   31  A    between atoms: _71  and  _72
REMARK   32  A    between atoms: _74  and  _76
REMARK   33  A    between atoms: _76  and  _77
REMARK   34  A    between atoms: _76  and  _79
REMARK   35  A    between atoms: _79  and  _80
REMARK   36  A    between atoms: _82  and  _84
REMARK   37  A    between atoms: _84  and  _85
REMARK   38  A    between atoms: _88  and  _90
REMARK   39  A    between atoms: _90  and  _91
REMARK   40  A    between atoms: _90  and  _93
REMARK   41  A    between atoms: _93  and  _94
REMARK   42  A    between atoms: _99  and  _101
REMARK   43  A    between atoms: _101  and  _102
REMARK   44  A    between atoms: _101  and  _104
REMARK   45  A    between atoms: _104  and  _105
REMARK   46  A    between atoms: _115  and  _117
REMARK   47  A    between atoms: _117  and  _118
REMARK   48  A    between atoms: _117  and  _120
REMARK   49  A    between atoms: _123  and  _125
REMARK   50  A    between atoms: _125  and  _126
REMARK   51  A    between atoms: _125  and  _128
REMARK   52  A    between atoms: _128  and  _129
REMARK   53  A    between atoms: _129  and  _130
REMARK   54  A    between atoms: _133  and  _135
REMARK   55  A    between atoms: _135  and  _136
REMARK   56  A    between atoms: _135  and  _138
REMARK   57  A    between atoms: _138  and  _139
REMARK   58  A    between atoms: _139  and  _140
REMARK   59  A    between atoms: _142  and  _144
REMARK   60  A    between atoms: _144  and  _145
REMARK   61  A    between atoms: _144  and  _147
REMARK   62  A    between atoms: _147  and  _148
REMARK   63  A    between atoms: _153  and  _155
REMARK   64  A    between atoms: _155  and  _156
REMARK   65  A    between atoms: _155  and  _158
REMARK   66  A    between atoms: _158  and  _159
REMARK   67  A    between atoms: _164  and  _165
REMARK   68  A    between atoms: _167  and  _169
REMARK   69  A    between atoms: _169  and  _170
REMARK   70  A    between atoms: _169  and  _172
REMARK   71  A    between atoms: _175  and  _177
REMARK   72  A    between atoms: _177  and  _178
REMARK   73  A    between atoms: _177  and  _180
REMARK   74  A    between atoms: _180  and  _181
REMARK   75  A    between atoms: _183  and  _185
REMARK   76  A    between atoms: _185  and  _186
REMARK   77  A    between atoms: _188  and  _190
REMARK   78  A    between atoms: _190  and  _191
REMARK   79  A    between atoms: _190  and  _193
REMARK   80  A    between atoms: _193  and  _194
REMARK   81  A    between atoms: _197  and  _199
REMARK   82  A    between atoms: _199  and  _200
REMARK   83  A    between atoms: _199  and  _202
REMARK   84  A    between atoms: _205  and  _207
REMARK   85  A    between atoms: _207  and  _208
REMARK   86  A    between atoms: _207  and  _210
REMARK   87  A    between atoms: _210  and  _211
REMARK   88  A    between atoms: _217  and  _219
REMARK   89  A    between atoms: _219  and  _220
REMARK   90  A    between atoms: _219  and  _222
REMARK   91  A    between atoms: _222  and  _223
REMARK   92  A    between atoms: _226  and  _228
REMARK   93  A    between atoms: _228  and  _229
REMARK   94  A    between atoms: _228  and  _231
REMARK   95  A    between atoms: _231  and  _232
REMARK   96  A    between atoms: _237  and  _238
REMARK   97  A    between atoms: _240  and  _242
REMARK   98  A    between atoms: _242  and  _243
REMARK   99  A    between atoms: _242  and  _245
REMARK  100  A    between atoms: _245  and  _246
REMARK  101  A    between atoms: _248  and  _250
REMARK  102  A    between atoms: _250  and  _251
REMARK  103  A    between atoms: _250  and  _253
REMARK  104  A    between atoms: _253  and  _254
REMARK  105  A    between atoms: _260  and  _262
REMARK  106  A    between atoms: _262  and  _263
REMARK  107  A    between atoms: _265  and  _267
REMARK  108  A    between atoms: _267  and  _268
REMARK  109  A    between atoms: _267  and  _270
REMARK  110  A    between atoms: _270  and  _271
REMARK  111  A    between atoms: _274  and  _276
REMARK  112  A    between atoms: _276  and  _277
REMARK  113  A    between atoms: _276  and  _279
REMARK  114  A    between atoms: _279  and  _280
REMARK  115  A    between atoms: _283  and  _285
REMARK  116  A    between atoms: _285  and  _286
REMARK  117  A    between atoms: _285  and  _288
REMARK  118  A    between atoms: _288  and  _289
REMARK  119  A    between atoms: _292  and  _294
REMARK  120  A    between atoms: _294  and  _295
REMARK  121  A    between atoms: _297  and  _299
REMARK  122  A    between atoms: _299  and  _300
REMARK  123  A    between atoms: _299  and  _302
REMARK  124  A    between atoms: _302  and  _303
REMARK  125  A    between atoms: _313  and  _315
REMARK  126  A    between atoms: _315  and  _316
REMARK  127  A    between atoms: _315  and  _318
REMARK  128  A    between atoms: _318  and  _319
REMARK  129  A    between atoms: _322  and  _324
REMARK  130  A    between atoms: _324  and  _325
REMARK  131  A    between atoms: _324  and  _327
REMARK  132  A    between atoms: _327  and  _328
REMARK  133  A    between atoms: _331  and  _333
REMARK  134  A    between atoms: _333  and  _334
REMARK  135  A    between atoms: _333  and  _336
REMARK  136  A    between atoms: _336  and  _337
REMARK  137  A    between atoms: _339  and  _341
REMARK  138  A    between atoms: _341  and  _342
REMARK  139  A    between atoms: _341  and  _344
REMARK  140  A    between atoms: _344  and  _345
REMARK  141  A    between atoms: _348  and  _350
REMARK  142  A    between atoms: _350  and  _351
REMARK  143  A    between atoms: _350  and  _353
REMARK  144  A    between atoms: _353  and  _354
REMARK  145  A    between atoms: _357  and  _359
REMARK  146  A    between atoms: _359  and  _360
REMARK  147  A    between atoms: _359  and  _362
REMARK  148  A    between atoms: _362  and  _363
REMARK  149  A    between atoms: _368  and  _369
REMARK  150  A    between atoms: _371  and  _373
REMARK  151  A    between atoms: _373  and  _374
REMARK  152  A    between atoms: _373  and  _376
REMARK  153  A    between atoms: _376  and  _377
REMARK  154  A    between atoms: _387  and  _389
REMARK  155  A    between atoms: _389  and  _390
REMARK  156  A    between atoms: _389  and  _392
REMARK  157  A    between atoms: _392  and  _393
REMARK  158  A    between atoms: _398  and  _400
REMARK  159  A    between atoms: _400  and  _401
REMARK  160  A    between atoms: _400  and  _403
REMARK  161  A    between atoms: _403  and  _404
REMARK  162  A    between atoms: _407  and  _409
REMARK  163  A    between atoms: _409  and  _410
REMARK  164  A    between atoms: _409  and  _412
REMARK  165  A    between atoms: _415  and  _417
REMARK  166  A    between atoms: _417  and  _418
REMARK  167  A    between atoms: _417  and  _420
REMARK  168  A    between atoms: _420  and  _421
REMARK  169  A    between atoms: _424  and  _426
REMARK  170  A    between atoms: _426  and  _427
REMARK  171  A    between atoms: _426  and  _429
REMARK  172  A    between atoms: _429  and  _430
REMARK  173  A    between atoms: _432  and  _434
REMARK  174  A    between atoms: _434  and  _435
REMARK  175  A    between atoms: _437  and  _439
REMARK  176  A    between atoms: _439  and  _440
REMARK  177  A    between atoms: _439  and  _442
REMARK  178  A    between atoms: _442  and  _443
REMARK  179  A    between atoms: _446  and  _448
REMARK  180  A    between atoms: _448  and  _449
REMARK  181  A    between atoms: _448  and  _451
REMARK  182  A    between atoms: _451  and  _452
REMARK  183  A    between atoms: _454  and  _456
REMARK  184  A    between atoms: _456  and  _457
REMARK  185  A    between atoms: _460  and  _462
REMARK  186  A    between atoms: _462  and  _463
REMARK  187  A    between atoms: _462  and  _465
REMARK  188  A    between atoms: _465  and  _466
REMARK  189  A    between atoms: _469  and  _471
REMARK  190  A    between atoms: _471  and  _472
REMARK  191  A    between atoms: _471  and  _474
REMARK  192  A    between atoms: _474  and  _475
REMARK  193  A    between atoms: _478  and  _480
REMARK  194  A    between atoms: _480  and  _481
REMARK  195  A    between atoms: _480  and  _483
REMARK  196  A    between atoms: _487  and  _488
REMARK  197  A    between atoms: _493  and  _495
REMARK  198  A    between atoms: _495  and  _496
REMARK  199  A    between atoms: _495  and  _498
REMARK  200  A    between atoms: _498  and  _499
REMARK  201  A    between atoms: _504  and  _506
REMARK  202  A    between atoms: _506  and  _507
REMARK  203  A    between atoms: _506  and  _509
REMARK  204  A    between atoms: _509  and  _510
REMARK  205  A    between atoms: _513  and  _515
REMARK  206  A    between atoms: _515  and  _516
REMARK  207  A    between atoms: _515  and  _518
REMARK  208  A    between atoms: _518  and  _519
REMARK  209  A    between atoms: _522  and  _524
REMARK  210  A    between atoms: _524  and  _525
REMARK  211  A    between atoms: _524  and  _527
REMARK  212  A    between atoms: _527  and  _528
REMARK  213  A    between atoms: _531  and  _533
REMARK  214  A    between atoms: _533  and  _534
REMARK  215  A    between atoms: _533  and  _536
REMARK  216  A    between atoms: _536  and  _537
REMARK  217  A    between atoms: _543  and  _545
REMARK  218  A    between atoms: _545  and  _546
REMARK  219  A    between atoms: _545  and  _548
REMARK  220  A    between atoms: _548  and  _549
REMARK  221  A    between atoms: _552  and  _554
REMARK  222  A    between atoms: _554  and  _555
REMARK  223  A    between atoms: _554  and  _557
REMARK  224  A    between atoms: _557  and  _558
REMARK  225  A    between atoms: _564  and  _566
REMARK  226  A    between atoms: _566  and  _567
REMARK  227  A    between atoms: _566  and  _569
REMARK  228  A    between atoms: _569  and  _570
REMARK  229  A    between atoms: _573  and  _575
REMARK  230  A    between atoms: _575  and  _576
REMARK  231  A    between atoms: _575  and  _578
REMARK  232  A    between atoms: _578  and  _579
REMARK  233  A    between atoms: _582  and  _584
REMARK  234  A    between atoms: _584  and  _585
REMARK  235  A    between atoms: _587  and  _589
REMARK  236  A    between atoms: _589  and  _590
REMARK  237  A    between atoms: _589  and  _592
REMARK  238  A    between atoms: _592  and  _593
REMARK                            x       y       z     vdW  Elec       q    Type
REMARK                         _______ _______ _______ _____ _____    ______ ____
ROOT
ATOM      1  O   HOH     1      22.964  29.637   6.279  0.00  0.00    +0.000 OA
ENDROOT
TORSDOF 0
REMARK  Name = ../refined-set-2016/1lee/1lee_pocket.pdb
REMARK  238 active torsions:
REMARK  status: ('A' for Active; 'I' for Inactive)
REMARK    1  A    between atoms: _1  and  _3
REMARK    2  A    between atoms: _3  and  _4
REMARK    3  A    between atoms: _3  and  _6
REMARK    4  A    between atoms: _6  and  _7
REMARK    5  A    between atoms: _10  and  _12
REMARK    6  A    between atoms: _12  and  _13
REMARK    7  A    between atoms: _12  and  _15
REMARK    8  A    between atoms: _16  and  _17
REMARK    9  A    between atoms: _19  and  _21
REMARK   10  A    between atoms: _21  and  _22
REMARK   11  A    between atoms: _21  and  _24
REMARK   12  A    between atoms: _24  and  _25
REMARK   13  A    between atoms: _30  and  _31
REMARK   14  A    between atoms: _33  and  _35
REMARK   15  A    between atoms: _35  and  _36
REMARK   16  A    between atoms: _35  and  _38
REMARK   17  A    between atoms: _38  and  _39
REMARK   18  A    between atoms: _42  and  _44
REMARK   19  A    between atoms: _44  and  _45
REMARK   20  A    between atoms: _44  and  _47
REMARK   21  A    between atoms: _47  and  _48
REMARK   22  A    between atoms: _51  and  _53
REMARK   23  A    between atoms: _53  and  _54
REMARK   24  A    between atoms: _53  and  _56
REMARK   25  A    between atoms: _56  and  _57
REMARK   26  A    between atoms: _60  and  _62
REMARK   27  A    between atoms: _62  and  _63
REMARK   28  A    between atoms: _62  and  _65
REMARK   29  A    between atoms: _65  and  _66
REMARK   30  A    between atoms: _69  and  _71
REMARK   31  A    between atoms: _71  and  _72
REMARK   32  A    between atoms: _74  and  _76
REMARK   33  A    between atoms: _76  and  _77
REMARK   34  A    between atoms: _76  and  _79
REMARK   35  A    between atoms: _79  and  _80
REMARK   36  A    between atoms: _82  and  _84
REMARK   37  A    between atoms: _84  and  _85
REMARK   38  A    between atoms: _88  and  _90
REMARK   39  A    between atoms: _90  and  _91
REMARK   40  A    between atoms: _90  and  _93
REMARK   41  A    between atoms: _93  and  _94
REMARK   42  A    between atoms: _99  and  _101
REMARK   43  A    between atoms: _101  and  _102
REMARK   44  A    between atoms: _101  and  _104
REMARK   45  A    between atoms: _104  and  _105
REMARK   46  A    between atoms: _115  and  _117
REMARK   47  A    between atoms: _117  and  _118
REMARK   48  A    between atoms: _117  and  _120
REMARK   49  A    between atoms: _123  and  _125
REMARK   50  A    between atoms: _125  and  _126
REMARK   51  A    between atoms: _125  and  _128
REMARK   52  A    between atoms: _128  and  _129
REMARK   53  A    between atoms: _129  and  _130
REMARK   54  A    between atoms: _133  and  _135
REMARK   55  A    between atoms: _135  and  _136
REMARK   56  A    between atoms: _135  and  _138
REMARK   57  A    between atoms: _138  and  _139
REMARK   58  A    between atoms: _139  and  _140
REMARK   59  A    between atoms: _142  and  _144
REMARK   60  A    between atoms: _144  and  _145
REMARK   61  A    between atoms: _144  and  _147
REMARK   62  A    between atoms: _147  and  _148
REMARK   63  A    between atoms: _153  and  _155
REMARK   64  A    between atoms: _155  and  _156
REMARK   65  A    between atoms: _155  and  _158
REMARK   66  A    between atoms: _158  and  _159
REMARK   67  A    between atoms: _164  and  _165
REMARK   68  A    between atoms: _167  and  _169
REMARK   69  A    between atoms: _169  and  _170
REMARK   70  A    between atoms: _169  and  _172
REMARK   71  A    between atoms: _175  and  _177
REMARK   72  A    between atoms: _177  and  _178
REMARK   73  A    between atoms: _177  and  _180
REMARK   74  A    between atoms: _180  and  _181
REMARK   75  A    between atoms: _183  and  _185
REMARK   76  A    between atoms: _185  and  _186
REMARK   77  A    between atoms: _188  and  _190
REMARK   78  A    between atoms: _190  and  _191
REMARK   79  A    between atoms: _190  and  _193
REMARK   80  A    between atoms: _193  and  _194
REMARK   81  A    between atoms: _197  and  _199
REMARK   82  A    between atoms: _199  and  _200
REMARK   83  A    between atoms: _199  and  _202
REMARK   84  A    between atoms: _205  and  _207
REMARK   85  A    between atoms: _207  and  _208
REMARK   86  A    between atoms: _207  and  _210
REMARK   87  A    between atoms: _210  and  _211
REMARK   88  A    between atoms: _217  and  _219
REMARK   89  A    between atoms: _219  and  _220
REMARK   90  A    between atoms: _219  and  _222
REMARK   91  A    between atoms: _222  and  _223
REMARK   92  A    between atoms: _226  and  _228
REMARK   93  A    between atoms: _228  and  _229
REMARK   94  A    between atoms: _228  and  _231
REMARK   95  A    between atoms: _231  and  _232
REMARK   96  A    between atoms: _237  and  _238
REMARK   97  A    between atoms: _240  and  _242
REMARK   98  A    between atoms: _242  and  _243
REMARK   99  A    between atoms: _242  and  _245
REMARK  100  A    between atoms: _245  and  _246
REMARK  101  A    between atoms: _248  and  _250
REMARK  102  A    between atoms: _250  and  _251
REMARK  103  A    between atoms: _250  and  _253
REMARK  104  A    between atoms: _253  and  _254
REMARK  105  A    between atoms: _260  and  _262
REMARK  106  A    between atoms: _262  and  _263
REMARK  107  A    between atoms: _265  and  _267
REMARK  108  A    between atoms: _267  and  _268
REMARK  109  A    between atoms: _267  and  _270
REMARK  110  A    between atoms: _270  and  _271
REMARK  111  A    between atoms: _274  and  _276
REMARK  112  A    between atoms: _276  and  _277
REMARK  113  A    between atoms: _276  and  _279
REMARK  114  A    between atoms: _279  and  _280
REMARK  115  A    between atoms: _283  and  _285
REMARK  116  A    between atoms: _285  and  _286
REMARK  117  A    between atoms: _285  and  _288
REMARK  118  A    between atoms: _288  and  _289
REMARK  119  A    between atoms: _292  and  _294
REMARK  120  A    between atoms: _294  and  _295
REMARK  121  A    between atoms: _297  and  _299
REMARK  122  A    between atoms: _299  and  _300
REMARK  123  A    between atoms: _299  and  _302
REMARK  124  A    between atoms: _302  and  _303
REMARK  125  A    between atoms: _313  and  _315
REMARK  126  A    between atoms: _315  and  _316
REMARK  127  A    between atoms: _315  and  _318
REMARK  128  A    between atoms: _318  and  _319
REMARK  129  A    between atoms: _322  and  _324
REMARK  130  A    between atoms: _324  and  _325
REMARK  131  A    between atoms: _324  and  _327
REMARK  132  A    between atoms: _327  and  _328
REMARK  133  A    between atoms: _331  and  _333
REMARK  134  A    between atoms: _333  and  _334
REMARK  135  A    between atoms: _333  and  _336
REMARK  136  A    between atoms: _336  and  _337
REMARK  137  A    between atoms: _339  and  _341
REMARK  138  A    between atoms: _341  and  _342
REMARK  139  A    between atoms: _341  and  _344
REMARK  140  A    between atoms: _344  and  _345
REMARK  141  A    between atoms: _348  and  _350
REMARK  142  A    between atoms: _350  and  _351
REMARK  143  A    between atoms: _350  and  _353
REMARK  144  A    between atoms: _353  and  _354
REMARK  145  A    between atoms: _357  and  _359
REMARK  146  A    between atoms: _359  and  _360
REMARK  147  A    between atoms: _359  and  _362
REMARK  148  A    between atoms: _362  and  _363
REMARK  149  A    between atoms: _368  and  _369
REMARK  150  A    between atoms: _371  and  _373
REMARK  151  A    between atoms: _373  and  _374
REMARK  152  A    between atoms: _373  and  _376
REMARK  153  A    between atoms: _376  and  _377
REMARK  154  A    between atoms: _387  and  _389
REMARK  155  A    between atoms: _389  and  _390
REMARK  156  A    between atoms: _389  and  _392
REMARK  157  A    between atoms: _392  and  _393
REMARK  158  A    between atoms: _398  and  _400
REMARK  159  A    between atoms: _400  and  _401
REMARK  160  A    between atoms: _400  and  _403
REMARK  161  A    between atoms: _403  and  _404
REMARK  162  A    between atoms: _407  and  _409
REMARK  163  A    between atoms: _409  and  _410
REMARK  164  A    between atoms: _409  and  _412
REMARK  165  A    between atoms: _415  and  _417
REMARK  166  A    between atoms: _417  and  _418
REMARK  167  A    between atoms: _417  and  _420
REMARK  168  A    between atoms: _420  and  _421
REMARK  169  A    between atoms: _424  and  _426
REMARK  170  A    between atoms: _426  and  _427
REMARK  171  A    between atoms: _426  and  _429
REMARK  172  A    between atoms: _429  and  _430
REMARK  173  A    between atoms: _432  and  _434
REMARK  174  A    between atoms: _434  and  _435
REMARK  175  A    between atoms: _437  and  _439
REMARK  176  A    between atoms: _439  and  _440
REMARK  177  A    between atoms: _439  and  _442
REMARK  178  A    between atoms: _442  and  _443
REMARK  179  A    between atoms: _446  and  _448
REMARK  180  A    between atoms: _448  and  _449
REMARK  181  A    between atoms: _448  and  _451
REMARK  182  A    between atoms: _451  and  _452
REMARK  183  A    between atoms: _454  and  _456
REMARK  184  A    between atoms: _456  and  _457
REMARK  185  A    between atoms: _460  and  _462
REMARK  186  A    between atoms: _462  and  _463
REMARK  187  A    between atoms: _462  and  _465
REMARK  188  A    between atoms: _465  and  _466
REMARK  189  A    between atoms: _469  and  _471
REMARK  190  A    between atoms: _471  and  _472
REMARK  191  A    between atoms: _471  and  _474
REMARK  192  A    between atoms: _474  and  _475
REMARK  193  A    between atoms: _478  and  _480
REMARK  194  A    between atoms: _480  and  _481
REMARK  195  A    between atoms: _480  and  _483
REMARK  196  A    between atoms: _487  and  _488
REMARK  197  A    between atoms: _493  and  _495
REMARK  198  A    between atoms: _495  and  _496
REMARK  199  A    between atoms: _495  and  _498
REMARK  200  A    between atoms: _498  and  _499
REMARK  201  A    between atoms: _504  and  _506
REMARK  202  A    between atoms: _506  and  _507
REMARK  203  A    between atoms: _506  and  _509
REMARK  204  A    between atoms: _509  and  _510
REMARK  205  A    between atoms: _513  and  _515
REMARK  206  A    between atoms: _515  and  _516
REMARK  207  A    between atoms: _515  and  _518
REMARK  208  A    between atoms: _518  and  _519
REMARK  209  A    between atoms: _522  and  _524
REMARK  210  A    between atoms: _524  and  _525
REMARK  211  A    between atoms: _524  and  _527
REMARK  212  A    between atoms: _527  and  _528
REMARK  213  A    between atoms: _531  and  _533
REMARK  214  A    between atoms: _533  and  _534
REMARK  215  A    between atoms: _533  and  _536
REMARK  216  A    between atoms: _536  and  _537
REMARK  217  A    between atoms: _543  and  _545
REMARK  218  A    between atoms: _545  and  _546
REMARK  219  A    between atoms: _545  and  _548
REMARK  220  A    between atoms: _548  and  _549
REMARK  221  A    between atoms: _552  and  _554
REMARK  222  A    between atoms: _554  and  _555
REMARK  223  A    between atoms: _554  and  _557
REMARK  224  A    between atoms: _557  and  _558
REMARK  225  A    between atoms: _564  and  _566
REMARK  226  A    between atoms: _566  and  _567
REMARK  227  A    between atoms: _566  and  _569
REMARK  228  A    between atoms: _569  and  _570
REMARK  229  A    between atoms: _573  and  _575
REMARK  230  A    between atoms: _575  and  _576
REMARK  231  A    between atoms: _575  and  _578
REMARK  232  A    between atoms: _578  and  _579
REMARK  233  A    between atoms: _582  and  _584
REMARK  234  A    between atoms: _584  and  _585
REMARK  235  A    between atoms: _587  and  _589
REMARK  236  A    between atoms: _589  and  _590
REMARK  237  A    between atoms: _589  and  _592
REMARK  238  A    between atoms: _592  and  _593
REMARK                            x       y       z     vdW  Elec       q    Type
REMARK                         _______ _______ _______ _____ _____    ______ ____
ROOT
ATOM      1  O   HOH     1      26.966  24.323  15.792  0.00  0.00    +0.000 OA
ENDROOT
TORSDOF 0
REMARK  Name = ../refined-set-2016/1lee/1lee_pocket.pdb
REMARK  238 active torsions:
REMARK  status: ('A' for Active; 'I' for Inactive)
REMARK    1  A    between atoms: _1  and  _3
REMARK    2  A    between atoms: _3  and  _4
REMARK    3  A    between atoms: _3  and  _6
REMARK    4  A    between atoms: _6  and  _7
REMARK    5  A    between atoms: _10  and  _12
REMARK    6  A    between atoms: _12  and  _13
REMARK    7  A    between atoms: _12  and  _15
REMARK    8  A    between atoms: _16  and  _17
REMARK    9  A    between atoms: _19  and  _21
REMARK   10  A    between atoms: _21  and  _22
REMARK   11  A    between atoms: _21  and  _24
REMARK   12  A    between atoms: _24  and  _25
REMARK   13  A    between atoms: _30  and  _31
REMARK   14  A    between atoms: _33  and  _35
REMARK   15  A    between atoms: _35  and  _36
REMARK   16  A    between atoms: _35  and  _38
REMARK   17  A    between atoms: _38  and  _39
REMARK   18  A    between atoms: _42  and  _44
REMARK   19  A    between atoms: _44  and  _45
REMARK   20  A    between atoms: _44  and  _47
REMARK   21  A    between atoms: _47  and  _48
REMARK   22  A    between atoms: _51  and  _53
REMARK   23  A    between atoms: _53  and  _54
REMARK   24  A    between atoms: _53  and  _56
REMARK   25  A    between atoms: _56  and  _57
REMARK   26  A    between atoms: _60  and  _62
REMARK   27  A    between atoms: _62  and  _63
REMARK   28  A    between atoms: _62  and  _65
REMARK   29  A    between atoms: _65  and  _66
REMARK   30  A    between atoms: _69  and  _71
REMARK   31  A    between atoms: _71  and  _72
REMARK   32  A    between atoms: _74  and  _76
REMARK   33  A    between atoms: _76  and  _77
REMARK   34  A    between atoms: _76  and  _79
REMARK   35  A    between atoms: _79  and  _80
REMARK   36  A    between atoms: _82  and  _84
REMARK   37  A    between atoms: _84  and  _85
REMARK   38  A    between atoms: _88  and  _90
REMARK   39  A    between atoms: _90  and  _91
REMARK   40  A    between atoms: _90  and  _93
REMARK   41  A    between atoms: _93  and  _94
REMARK   42  A    between atoms: _99  and  _101
REMARK   43  A    between atoms: _101  and  _102
REMARK   44  A    between atoms: _101  and  _104
REMARK   45  A    between atoms: _104  and  _105
REMARK   46  A    between atoms: _115  and  _117
REMARK   47  A    between atoms: _117  and  _118
REMARK   48  A    between atoms: _117  and  _120
REMARK   49  A    between atoms: _123  and  _125
REMARK   50  A    between atoms: _125  and  _126
REMARK   51  A    between atoms: _125  and  _128
REMARK   52  A    between atoms: _128  and  _129
REMARK   53  A    between atoms: _129  and  _130
REMARK   54  A    between atoms: _133  and  _135
REMARK   55  A    between atoms: _135  and  _136
REMARK   56  A    between atoms: _135  and  _138
REMARK   57  A    between atoms: _138  and  _139
REMARK   58  A    between atoms: _139  and  _140
REMARK   59  A    between atoms: _142  and  _144
REMARK   60  A    between atoms: _144  and  _145
REMARK   61  A    between atoms: _144  and  _147
REMARK   62  A    between atoms: _147  and  _148
REMARK   63  A    between atoms: _153  and  _155
REMARK   64  A    between atoms: _155  and  _156
REMARK   65  A    between atoms: _155  and  _158
REMARK   66  A    between atoms: _158  and  _159
REMARK   67  A    between atoms: _164  and  _165
REMARK   68  A    between atoms: _167  and  _169
REMARK   69  A    between atoms: _169  and  _170
REMARK   70  A    between atoms: _169  and  _172
REMARK   71  A    between atoms: _175  and  _177
REMARK   72  A    between atoms: _177  and  _178
REMARK   73  A    between atoms: _177  and  _180
REMARK   74  A    between atoms: _180  and  _181
REMARK   75  A    between atoms: _183  and  _185
REMARK   76  A    between atoms: _185  and  _186
REMARK   77  A    between atoms: _188  and  _190
REMARK   78  A    between atoms: _190  and  _191
REMARK   79  A    between atoms: _190  and  _193
REMARK   80  A    between atoms: _193  and  _194
REMARK   81  A    between atoms: _197  and  _199
REMARK   82  A    between atoms: _199  and  _200
REMARK   83  A    between atoms: _199  and  _202
REMARK   84  A    between atoms: _205  and  _207
REMARK   85  A    between atoms: _207  and  _208
REMARK   86  A    between atoms: _207  and  _210
REMARK   87  A    between atoms: _210  and  _211
REMARK   88  A    between atoms: _217  and  _219
REMARK   89  A    between atoms: _219  and  _220
REMARK   90  A    between atoms: _219  and  _222
REMARK   91  A    between atoms: _222  and  _223
REMARK   92  A    between atoms: _226  and  _228
REMARK   93  A    between atoms: _228  and  _229
REMARK   94  A    between atoms: _228  and  _231
REMARK   95  A    between atoms: _231  and  _232
REMARK   96  A    between atoms: _237  and  _238
REMARK   97  A    between atoms: _240  and  _242
REMARK   98  A    between atoms: _242  and  _243
REMARK   99  A    between atoms: _242  and  _245
REMARK  100  A    between atoms: _245  and  _246
REMARK  101  A    between atoms: _248  and  _250
REMARK  102  A    between atoms: _250  and  _251
REMARK  103  A    between atoms: _250  and  _253
REMARK  104  A    between atoms: _253  and  _254
REMARK  105  A    between atoms: _260  and  _262
REMARK  106  A    between atoms: _262  and  _263
REMARK  107  A    between atoms: _265  and  _267
REMARK  108  A    between atoms: _267  and  _268
REMARK  109  A    between atoms: _267  and  _270
REMARK  110  A    between atoms: _270  and  _271
REMARK  111  A    between atoms: _274  and  _276
REMARK  112  A    between atoms: _276  and  _277
REMARK  113  A    between atoms: _276  and  _279
REMARK  114  A    between atoms: _279  and  _280
REMARK  115  A    between atoms: _283  and  _285
REMARK  116  A    between atoms: _285  and  _286
REMARK  117  A    between atoms: _285  and  _288
REMARK  118  A    between atoms: _288  and  _289
REMARK  119  A    between atoms: _292  and  _294
REMARK  120  A    between atoms: _294  and  _295
REMARK  121  A    between atoms: _297  and  _299
REMARK  122  A    between atoms: _299  and  _300
REMARK  123  A    between atoms: _299  and  _302
REMARK  124  A    between atoms: _302  and  _303
REMARK  125  A    between atoms: _313  and  _315
REMARK  126  A    between atoms: _315  and  _316
REMARK  127  A    between atoms: _315  and  _318
REMARK  128  A    between atoms: _318  and  _319
REMARK  129  A    between atoms: _322  and  _324
REMARK  130  A    between atoms: _324  and  _325
REMARK  131  A    between atoms: _324  and  _327
REMARK  132  A    between atoms: _327  and  _328
REMARK  133  A    between atoms: _331  and  _333
REMARK  134  A    between atoms: _333  and  _334
REMARK  135  A    between atoms: _333  and  _336
REMARK  136  A    between atoms: _336  and  _337
REMARK  137  A    between atoms: _339  and  _341
REMARK  138  A    between atoms: _341  and  _342
REMARK  139  A    between atoms: _341  and  _344
REMARK  140  A    between atoms: _344  and  _345
REMARK  141  A    between atoms: _348  and  _350
REMARK  142  A    between atoms: _350  and  _351
REMARK  143  A    between atoms: _350  and  _353
REMARK  144  A    between atoms: _353  and  _354
REMARK  145  A    between atoms: _357  and  _359
REMARK  146  A    between atoms: _359  and  _360
REMARK  147  A    between atoms: _359  and  _362
REMARK  148  A    between atoms: _362  and  _363
REMARK  149  A    between atoms: _368  and  _369
REMARK  150  A    between atoms: _371  and  _373
REMARK  151  A    between atoms: _373  and  _374
REMARK  152  A    between atoms: _373  and  _376
REMARK  153  A    between atoms: _376  and  _377
REMARK  154  A    between atoms: _387  and  _389
REMARK  155  A    between atoms: _389  and  _390
REMARK  156  A    between atoms: _389  and  _392
REMARK  157  A    between atoms: _392  and  _393
REMARK  158  A    between atoms: _398  and  _400
REMARK  159  A    between atoms: _400  and  _401
REMARK  160  A    between atoms: _400  and  _403
REMARK  161  A    between atoms: _403  and  _404
REMARK  162  A    between atoms: _407  and  _409
REMARK  163  A    between atoms: _409  and  _410
REMARK  164  A    between atoms: _409  and  _412
REMARK  165  A    between atoms: _415  and  _417
REMARK  166  A    between atoms: _417  and  _418
REMARK  167  A    between atoms: _417  and  _420
REMARK  168  A    between atoms: _420  and  _421
REMARK  169  A    between atoms: _424  and  _426
REMARK  170  A    between atoms: _426  and  _427
REMARK  171  A    between atoms: _426  and  _429
REMARK  172  A    between atoms: _429  and  _430
REMARK  173  A    between atoms: _432  and  _434
REMARK  174  A    between atoms: _434  and  _435
REMARK  175  A    between atoms: _437  and  _439
REMARK  176  A    between atoms: _439  and  _440
REMARK  177  A    between atoms: _439  and  _442
REMARK  178  A    between atoms: _442  and  _443
REMARK  179  A    between atoms: _446  and  _448
REMARK  180  A    between atoms: _448  and  _449
REMARK  181  A    between atoms: _448  and  _451
REMARK  182  A    between atoms: _451  and  _452
REMARK  183  A    between atoms: _454  and  _456
REMARK  184  A    between atoms: _456  and  _457
REMARK  185  A    between atoms: _460  and  _462
REMARK  186  A    between atoms: _462  and  _463
REMARK  187  A    between atoms: _462  and  _465
REMARK  188  A    between atoms: _465  and  _466
REMARK  189  A    between atoms: _469  and  _471
REMARK  190  A    between atoms: _471  and  _472
REMARK  191  A    between atoms: _471  and  _474
REMARK  192  A    between atoms: _474  and  _475
REMARK  193  A    between atoms: _478  and  _480
REMARK  194  A    between atoms: _480  and  _481
REMARK  195  A    between atoms: _480  and  _483
REMARK  196  A    between atoms: _487  and  _488
REMARK  197  A    between atoms: _493  and  _495
REMARK  198  A    between atoms: _495  and  _496
REMARK  199  A    between atoms: _495  and  _498
REMARK  200  A    between atoms: _498  and  _499
REMARK  201  A    between atoms: _504  and  _506
REMARK  202  A    between atoms: _506  and  _507
REMARK  203  A    between atoms: _506  and  _509
REMARK  204  A    between atoms: _509  and  _510
REMARK  205  A    between atoms: _513  and  _515
REMARK  206  A    between atoms: _515  and  _516
REMARK  207  A    between atoms: _515  and  _518
REMARK  208  A    between atoms: _518  and  _519
REMARK  209  A    between atoms: _522  and  _524
REMARK  210  A    between atoms: _524  and  _525
REMARK  211  A    between atoms: _524  and  _527
REMARK  212  A    between atoms: _527  and  _528
REMARK  213  A    between atoms: _531  and  _533
REMARK  214  A    between atoms: _533  and  _534
REMARK  215  A    between atoms: _533  and  _536
REMARK  216  A    between atoms: _536  and  _537
REMARK  217  A    between atoms: _543  and  _545
REMARK  218  A    between atoms: _545  and  _546
REMARK  219  A    between atoms: _545  and  _548
REMARK  220  A    between atoms: _548  and  _549
REMARK  221  A    between atoms: _552  and  _554
REMARK  222  A    between atoms: _554  and  _555
REMARK  223  A    between atoms: _554  and  _557
REMARK  224  A    between atoms: _557  and  _558
REMARK  225  A    between atoms: _564  and  _566
REMARK  226  A    between atoms: _566  and  _567
REMARK  227  A    between atoms: _566  and  _569
REMARK  228  A    between atoms: _569  and  _570
REMARK  229  A    between atoms: _573  and  _575
REMARK  230  A    between atoms: _575  and  _576
REMARK  231  A    between atoms: _575  and  _578
REMARK  232  A    between atoms: _578  and  _579
REMARK  233  A    between atoms: _582  and  _584
REMARK  234  A    between atoms: _584  and  _585
REMARK  235  A    between atoms: _587  and  _589
REMARK  236  A    between atoms: _589  and  _590
REMARK  237  A    between atoms: _589  and  _592
REMARK  238  A    between atoms: _592  and  _593
REMARK                            x       y       z     vdW  Elec       q    Type
REMARK                         _______ _______ _______ _____ _____    ______ ____
ROOT
ATOM      1  O   HOH     1      29.826  25.840  11.330  0.00  0.00    +0.000 OA
ENDROOT
TORSDOF 0
REMARK  Name = ../refined-set-2016/1lee/1lee_pocket.pdb
REMARK  238 active torsions:
REMARK  status: ('A' for Active; 'I' for Inactive)
REMARK    1  A    between atoms: _1  and  _3
REMARK    2  A    between atoms: _3  and  _4
REMARK    3  A    between atoms: _3  and  _6
REMARK    4  A    between atoms: _6  and  _7
REMARK    5  A    between atoms: _10  and  _12
REMARK    6  A    between atoms: _12  and  _13
REMARK    7  A    between atoms: _12  and  _15
REMARK    8  A    between atoms: _16  and  _17
REMARK    9  A    between atoms: _19  and  _21
REMARK   10  A    between atoms: _21  and  _22
REMARK   11  A    between atoms: _21  and  _24
REMARK   12  A    between atoms: _24  and  _25
REMARK   13  A    between atoms: _30  and  _31
REMARK   14  A    between atoms: _33  and  _35
REMARK   15  A    between atoms: _35  and  _36
REMARK   16  A    between atoms: _35  and  _38
REMARK   17  A    between atoms: _38  and  _39
REMARK   18  A    between atoms: _42  and  _44
REMARK   19  A    between atoms: _44  and  _45
REMARK   20  A    between atoms: _44  and  _47
REMARK   21  A    between atoms: _47  and  _48
REMARK   22  A    between atoms: _51  and  _53
REMARK   23  A    between atoms: _53  and  _54
REMARK   24  A    between atoms: _53  and  _56
REMARK   25  A    between atoms: _56  and  _57
REMARK   26  A    between atoms: _60  and  _62
REMARK   27  A    between atoms: _62  and  _63
REMARK   28  A    between atoms: _62  and  _65
REMARK   29  A    between atoms: _65  and  _66
REMARK   30  A    between atoms: _69  and  _71
REMARK   31  A    between atoms: _71  and  _72
REMARK   32  A    between atoms: _74  and  _76
REMARK   33  A    between atoms: _76  and  _77
REMARK   34  A    between atoms: _76  and  _79
REMARK   35  A    between atoms: _79  and  _80
REMARK   36  A    between atoms: _82  and  _84
REMARK   37  A    between atoms: _84  and  _85
REMARK   38  A    between atoms: _88  and  _90
REMARK   39  A    between atoms: _90  and  _91
REMARK   40  A    between atoms: _90  and  _93
REMARK   41  A    between atoms: _93  and  _94
REMARK   42  A    between atoms: _99  and  _101
REMARK   43  A    between atoms: _101  and  _102
REMARK   44  A    between atoms: _101  and  _104
REMARK   45  A    between atoms: _104  and  _105
REMARK   46  A    between atoms: _115  and  _117
REMARK   47  A    between atoms: _117  and  _118
REMARK   48  A    between atoms: _117  and  _120
REMARK   49  A    between atoms: _123  and  _125
REMARK   50  A    between atoms: _125  and  _126
REMARK   51  A    between atoms: _125  and  _128
REMARK   52  A    between atoms: _128  and  _129
REMARK   53  A    between atoms: _129  and  _130
REMARK   54  A    between atoms: _133  and  _135
REMARK   55  A    between atoms: _135  and  _136
REMARK   56  A    between atoms: _135  and  _138
REMARK   57  A    between atoms: _138  and  _139
REMARK   58  A    between atoms: _139  and  _140
REMARK   59  A    between atoms: _142  and  _144
REMARK   60  A    between atoms: _144  and  _145
REMARK   61  A    between atoms: _144  and  _147
REMARK   62  A    between atoms: _147  and  _148
REMARK   63  A    between atoms: _153  and  _155
REMARK   64  A    between atoms: _155  and  _156
REMARK   65  A    between atoms: _155  and  _158
REMARK   66  A    between atoms: _158  and  _159
REMARK   67  A    between atoms: _164  and  _165
REMARK   68  A    between atoms: _167  and  _169
REMARK   69  A    between atoms: _169  and  _170
REMARK   70  A    between atoms: _169  and  _172
REMARK   71  A    between atoms: _175  and  _177
REMARK   72  A    between atoms: _177  and  _178
REMARK   73  A    between atoms: _177  and  _180
REMARK   74  A    between atoms: _180  and  _181
REMARK   75  A    between atoms: _183  and  _185
REMARK   76  A    between atoms: _185  and  _186
REMARK   77  A    between atoms: _188  and  _190
REMARK   78  A    between atoms: _190  and  _191
REMARK   79  A    between atoms: _190  and  _193
REMARK   80  A    between atoms: _193  and  _194
REMARK   81  A    between atoms: _197  and  _199
REMARK   82  A    between atoms: _199  and  _200
REMARK   83  A    between atoms: _199  and  _202
REMARK   84  A    between atoms: _205  and  _207
REMARK   85  A    between atoms: _207  and  _208
REMARK   86  A    between atoms: _207  and  _210
REMARK   87  A    between atoms: _210  and  _211
REMARK   88  A    between atoms: _217  and  _219
REMARK   89  A    between atoms: _219  and  _220
REMARK   90  A    between atoms: _219  and  _222
REMARK   91  A    between atoms: _222  and  _223
REMARK   92  A    between atoms: _226  and  _228
REMARK   93  A    between atoms: _228  and  _229
REMARK   94  A    between atoms: _228  and  _231
REMARK   95  A    between atoms: _231  and  _232
REMARK   96  A    between atoms: _237  and  _238
REMARK   97  A    between atoms: _240  and  _242
REMARK   98  A    between atoms: _242  and  _243
REMARK   99  A    between atoms: _242  and  _245
REMARK  100  A    between atoms: _245  and  _246
REMARK  101  A    between atoms: _248  and  _250
REMARK  102  A    between atoms: _250  and  _251
REMARK  103  A    between atoms: _250  and  _253
REMARK  104  A    between atoms: _253  and  _254
REMARK  105  A    between atoms: _260  and  _262
REMARK  106  A    between atoms: _262  and  _263
REMARK  107  A    between atoms: _265  and  _267
REMARK  108  A    between atoms: _267  and  _268
REMARK  109  A    between atoms: _267  and  _270
REMARK  110  A    between atoms: _270  and  _271
REMARK  111  A    between atoms: _274  and  _276
REMARK  112  A    between atoms: _276  and  _277
REMARK  113  A    between atoms: _276  and  _279
REMARK  114  A    between atoms: _279  and  _280
REMARK  115  A    between atoms: _283  and  _285
REMARK  116  A    between atoms: _285  and  _286
REMARK  117  A    between atoms: _285  and  _288
REMARK  118  A    between atoms: _288  and  _289
REMARK  119  A    between atoms: _292  and  _294
REMARK  120  A    between atoms: _294  and  _295
REMARK  121  A    between atoms: _297  and  _299
REMARK  122  A    between atoms: _299  and  _300
REMARK  123  A    between atoms: _299  and  _302
REMARK  124  A    between atoms: _302  and  _303
REMARK  125  A    between atoms: _313  and  _315
REMARK  126  A    between atoms: _315  and  _316
REMARK  127  A    between atoms: _315  and  _318
REMARK  128  A    between atoms: _318  and  _319
REMARK  129  A    between atoms: _322  and  _324
REMARK  130  A    between atoms: _324  and  _325
REMARK  131  A    between atoms: _324  and  _327
REMARK  132  A    between atoms: _327  and  _328
REMARK  133  A    between atoms: _331  and  _333
REMARK  134  A    between atoms: _333  and  _334
REMARK  135  A    between atoms: _333  and  _336
REMARK  136  A    between atoms: _336  and  _337
REMARK  137  A    between atoms: _339  and  _341
REMARK  138  A    between atoms: _341  and  _342
REMARK  139  A    between atoms: _341  and  _344
REMARK  140  A    between atoms: _344  and  _345
REMARK  141  A    between atoms: _348  and  _350
REMARK  142  A    between atoms: _350  and  _351
REMARK  143  A    between atoms: _350  and  _353
REMARK  144  A    between atoms: _353  and  _354
REMARK  145  A    between atoms: _357  and  _359
REMARK  146  A    between atoms: _359  and  _360
REMARK  147  A    between atoms: _359  and  _362
REMARK  148  A    between atoms: _362  and  _363
REMARK  149  A    between atoms: _368  and  _369
REMARK  150  A    between atoms: _371  and  _373
REMARK  151  A    between atoms: _373  and  _374
REMARK  152  A    between atoms: _373  and  _376
REMARK  153  A    between atoms: _376  and  _377
REMARK  154  A    between atoms: _387  and  _389
REMARK  155  A    between atoms: _389  and  _390
REMARK  156  A    between atoms: _389  and  _392
REMARK  157  A    between atoms: _392  and  _393
REMARK  158  A    between atoms: _398  and  _400
REMARK  159  A    between atoms: _400  and  _401
REMARK  160  A    between atoms: _400  and  _403
REMARK  161  A    between atoms: _403  and  _404
REMARK  162  A    between atoms: _407  and  _409
REMARK  163  A    between atoms: _409  and  _410
REMARK  164  A    between atoms: _409  and  _412
REMARK  165  A    between atoms: _415  and  _417
REMARK  166  A    between atoms: _417  and  _418
REMARK  167  A    between atoms: _417  and  _420
REMARK  168  A    between atoms: _420  and  _421
REMARK  169  A    between atoms: _424  and  _426
REMARK  170  A    between atoms: _426  and  _427
REMARK  171  A    between atoms: _426  and  _429
REMARK  172  A    between atoms: _429  and  _430
REMARK  173  A    between atoms: _432  and  _434
REMARK  174  A    between atoms: _434  and  _435
REMARK  175  A    between atoms: _437  and  _439
REMARK  176  A    between atoms: _439  and  _440
REMARK  177  A    between atoms: _439  and  _442
REMARK  178  A    between atoms: _442  and  _443
REMARK  179  A    between atoms: _446  and  _448
REMARK  180  A    between atoms: _448  and  _449
REMARK  181  A    between atoms: _448  and  _451
REMARK  182  A    between atoms: _451  and  _452
REMARK  183  A    between atoms: _454  and  _456
REMARK  184  A    between atoms: _456  and  _457
REMARK  185  A    between atoms: _460  and  _462
REMARK  186  A    between atoms: _462  and  _463
REMARK  187  A    between atoms: _462  and  _465
REMARK  188  A    between atoms: _465  and  _466
REMARK  189  A    between atoms: _469  and  _471
REMARK  190  A    between atoms: _471  and  _472
REMARK  191  A    between atoms: _471  and  _474
REMARK  192  A    between atoms: _474  and  _475
REMARK  193  A    between atoms: _478  and  _480
REMARK  194  A    between atoms: _480  and  _481
REMARK  195  A    between atoms: _480  and  _483
REMARK  196  A    between atoms: _487  and  _488
REMARK  197  A    between atoms: _493  and  _495
REMARK  198  A    between atoms: _495  and  _496
REMARK  199  A    between atoms: _495  and  _498
REMARK  200  A    between atoms: _498  and  _499
REMARK  201  A    between atoms: _504  and  _506
REMARK  202  A    between atoms: _506  and  _507
REMARK  203  A    between atoms: _506  and  _509
REMARK  204  A    between atoms: _509  and  _510
REMARK  205  A    between atoms: _513  and  _515
REMARK  206  A    between atoms: _515  and  _516
REMARK  207  A    between atoms: _515  and  _518
REMARK  208  A    between atoms: _518  and  _519
REMARK  209  A    between atoms: _522  and  _524
REMARK  210  A    between atoms: _524  and  _525
REMARK  211  A    between atoms: _524  and  _527
REMARK  212  A    between atoms: _527  and  _528
REMARK  213  A    between atoms: _531  and  _533
REMARK  214  A    between atoms: _533  and  _534
REMARK  215  A    between atoms: _533  and  _536
REMARK  216  A    between atoms: _536  and  _537
REMARK  217  A    between atoms: _543  and  _545
REMARK  218  A    between atoms: _545  and  _546
REMARK  219  A    between atoms: _545  and  _548
REMARK  220  A    between atoms: _548  and  _549
REMARK  221  A    between atoms: _552  and  _554
REMARK  222  A    between atoms: _554  and  _555
REMARK  223  A    between atoms: _554  and  _557
REMARK  224  A    between atoms: _557  and  _558
REMARK  225  A    between atoms: _564  and  _566
REMARK  226  A    between atoms: _566  and  _567
REMARK  227  A    between atoms: _566  and  _569
REMARK  228  A    between atoms: _569  and  _570
REMARK  229  A    between atoms: _573  and  _575
REMARK  230  A    between atoms: _575  and  _576
REMARK  231  A    between atoms: _575  and  _578
REMARK  232  A    between atoms: _578  and  _579
REMARK  233  A    between atoms: _582  and  _584
REMARK  234  A    between atoms: _584  and  _585
REMARK  235  A    between atoms: _587  and  _589
REMARK  236  A    between atoms: _589  and  _590
REMARK  237  A    between atoms: _589  and  _592
REMARK  238  A    between atoms: _592  and  _593
REMARK                            x       y       z     vdW  Elec       q    Type
REMARK                         _______ _______ _______ _____ _____    ______ ____
ROOT
ATOM      1  O   HOH     1      35.542  38.533   6.252  0.00  0.00    +0.000 OA
ENDROOT
TORSDOF 0
REMARK  Name = ../refined-set-2016/1lee/1lee_pocket.pdb
REMARK  238 active torsions:
REMARK  status: ('A' for Active; 'I' for Inactive)
REMARK    1  A    between atoms: _1  and  _3
REMARK    2  A    between atoms: _3  and  _4
REMARK    3  A    between atoms: _3  and  _6
REMARK    4  A    between atoms: _6  and  _7
REMARK    5  A    between atoms: _10  and  _12
REMARK    6  A    between atoms: _12  and  _13
REMARK    7  A    between atoms: _12  and  _15
REMARK    8  A    between atoms: _16  and  _17
REMARK    9  A    between atoms: _19  and  _21
REMARK   10  A    between atoms: _21  and  _22
REMARK   11  A    between atoms: _21  and  _24
REMARK   12  A    between atoms: _24  and  _25
REMARK   13  A    between atoms: _30  and  _31
REMARK   14  A    between atoms: _33  and  _35
REMARK   15  A    between atoms: _35  and  _36
REMARK   16  A    between atoms: _35  and  _38
REMARK   17  A    between atoms: _38  and  _39
REMARK   18  A    between atoms: _42  and  _44
REMARK   19  A    between atoms: _44  and  _45
REMARK   20  A    between atoms: _44  and  _47
REMARK   21  A    between atoms: _47  and  _48
REMARK   22  A    between atoms: _51  and  _53
REMARK   23  A    between atoms: _53  and  _54
REMARK   24  A    between atoms: _53  and  _56
REMARK   25  A    between atoms: _56  and  _57
REMARK   26  A    between atoms: _60  and  _62
REMARK   27  A    between atoms: _62  and  _63
REMARK   28  A    between atoms: _62  and  _65
REMARK   29  A    between atoms: _65  and  _66
REMARK   30  A    between atoms: _69  and  _71
REMARK   31  A    between atoms: _71  and  _72
REMARK   32  A    between atoms: _74  and  _76
REMARK   33  A    between atoms: _76  and  _77
REMARK   34  A    between atoms: _76  and  _79
REMARK   35  A    between atoms: _79  and  _80
REMARK   36  A    between atoms: _82  and  _84
REMARK   37  A    between atoms: _84  and  _85
REMARK   38  A    between atoms: _88  and  _90
REMARK   39  A    between atoms: _90  and  _91
REMARK   40  A    between atoms: _90  and  _93
REMARK   41  A    between atoms: _93  and  _94
REMARK   42  A    between atoms: _99  and  _101
REMARK   43  A    between atoms: _101  and  _102
REMARK   44  A    between atoms: _101  and  _104
REMARK   45  A    between atoms: _104  and  _105
REMARK   46  A    between atoms: _115  and  _117
REMARK   47  A    between atoms: _117  and  _118
REMARK   48  A    between atoms: _117  and  _120
REMARK   49  A    between atoms: _123  and  _125
REMARK   50  A    between atoms: _125  and  _126
REMARK   51  A    between atoms: _125  and  _128
REMARK   52  A    between atoms: _128  and  _129
REMARK   53  A    between atoms: _129  and  _130
REMARK   54  A    between atoms: _133  and  _135
REMARK   55  A    between atoms: _135  and  _136
REMARK   56  A    between atoms: _135  and  _138
REMARK   57  A    between atoms: _138  and  _139
REMARK   58  A    between atoms: _139  and  _140
REMARK   59  A    between atoms: _142  and  _144
REMARK   60  A    between atoms: _144  and  _145
REMARK   61  A    between atoms: _144  and  _147
REMARK   62  A    between atoms: _147  and  _148
REMARK   63  A    between atoms: _153  and  _155
REMARK   64  A    between atoms: _155  and  _156
REMARK   65  A    between atoms: _155  and  _158
REMARK   66  A    between atoms: _158  and  _159
REMARK   67  A    between atoms: _164  and  _165
REMARK   68  A    between atoms: _167  and  _169
REMARK   69  A    between atoms: _169  and  _170
REMARK   70  A    between atoms: _169  and  _172
REMARK   71  A    between atoms: _175  and  _177
REMARK   72  A    between atoms: _177  and  _178
REMARK   73  A    between atoms: _177  and  _180
REMARK   74  A    between atoms: _180  and  _181
REMARK   75  A    between atoms: _183  and  _185
REMARK   76  A    between atoms: _185  and  _186
REMARK   77  A    between atoms: _188  and  _190
REMARK   78  A    between atoms: _190  and  _191
REMARK   79  A    between atoms: _190  and  _193
REMARK   80  A    between atoms: _193  and  _194
REMARK   81  A    between atoms: _197  and  _199
REMARK   82  A    between atoms: _199  and  _200
REMARK   83  A    between atoms: _199  and  _202
REMARK   84  A    between atoms: _205  and  _207
REMARK   85  A    between atoms: _207  and  _208
REMARK   86  A    between atoms: _207  and  _210
REMARK   87  A    between atoms: _210  and  _211
REMARK   88  A    between atoms: _217  and  _219
REMARK   89  A    between atoms: _219  and  _220
REMARK   90  A    between atoms: _219  and  _222
REMARK   91  A    between atoms: _222  and  _223
REMARK   92  A    between atoms: _226  and  _228
REMARK   93  A    between atoms: _228  and  _229
REMARK   94  A    between atoms: _228  and  _231
REMARK   95  A    between atoms: _231  and  _232
REMARK   96  A    between atoms: _237  and  _238
REMARK   97  A    between atoms: _240  and  _242
REMARK   98  A    between atoms: _242  and  _243
REMARK   99  A    between atoms: _242  and  _245
REMARK  100  A    between atoms: _245  and  _246
REMARK  101  A    between atoms: _248  and  _250
REMARK  102  A    between atoms: _250  and  _251
REMARK  103  A    between atoms: _250  and  _253
REMARK  104  A    between atoms: _253  and  _254
REMARK  105  A    between atoms: _260  and  _262
REMARK  106  A    between atoms: _262  and  _263
REMARK  107  A    between atoms: _265  and  _267
REMARK  108  A    between atoms: _267  and  _268
REMARK  109  A    between atoms: _267  and  _270
REMARK  110  A    between atoms: _270  and  _271
REMARK  111  A    between atoms: _274  and  _276
REMARK  112  A    between atoms: _276  and  _277
REMARK  113  A    between atoms: _276  and  _279
REMARK  114  A    between atoms: _279  and  _280
REMARK  115  A    between atoms: _283  and  _285
REMARK  116  A    between atoms: _285  and  _286
REMARK  117  A    between atoms: _285  and  _288
REMARK  118  A    between atoms: _288  and  _289
REMARK  119  A    between atoms: _292  and  _294
REMARK  120  A    between atoms: _294  and  _295
REMARK  121  A    between atoms: _297  and  _299
REMARK  122  A    between atoms: _299  and  _300
REMARK  123  A    between atoms: _299  and  _302
REMARK  124  A    between atoms: _302  and  _303
REMARK  125  A    between atoms: _313  and  _315
REMARK  126  A    between atoms: _315  and  _316
REMARK  127  A    between atoms: _315  and  _318
REMARK  128  A    between atoms: _318  and  _319
REMARK  129  A    between atoms: _322  and  _324
REMARK  130  A    between atoms: _324  and  _325
REMARK  131  A    between atoms: _324  and  _327
REMARK  132  A    between atoms: _327  and  _328
REMARK  133  A    between atoms: _331  and  _333
REMARK  134  A    between atoms: _333  and  _334
REMARK  135  A    between atoms: _333  and  _336
REMARK  136  A    between atoms: _336  and  _337
REMARK  137  A    between atoms: _339  and  _341
REMARK  138  A    between atoms: _341  and  _342
REMARK  139  A    between atoms: _341  and  _344
REMARK  140  A    between atoms: _344  and  _345
REMARK  141  A    between atoms: _348  and  _350
REMARK  142  A    between atoms: _350  and  _351
REMARK  143  A    between atoms: _350  and  _353
REMARK  144  A    between atoms: _353  and  _354
REMARK  145  A    between atoms: _357  and  _359
REMARK  146  A    between atoms: _359  and  _360
REMARK  147  A    between atoms: _359  and  _362
REMARK  148  A    between atoms: _362  and  _363
REMARK  149  A    between atoms: _368  and  _369
REMARK  150  A    between atoms: _371  and  _373
REMARK  151  A    between atoms: _373  and  _374
REMARK  152  A    between atoms: _373  and  _376
REMARK  153  A    between atoms: _376  and  _377
REMARK  154  A    between atoms: _387  and  _389
REMARK  155  A    between atoms: _389  and  _390
REMARK  156  A    between atoms: _389  and  _392
REMARK  157  A    between atoms: _392  and  _393
REMARK  158  A    between atoms: _398  and  _400
REMARK  159  A    between atoms: _400  and  _401
REMARK  160  A    between atoms: _400  and  _403
REMARK  161  A    between atoms: _403  and  _404
REMARK  162  A    between atoms: _407  and  _409
REMARK  163  A    between atoms: _409  and  _410
REMARK  164  A    between atoms: _409  and  _412
REMARK  165  A    between atoms: _415  and  _417
REMARK  166  A    between atoms: _417  and  _418
REMARK  167  A    between atoms: _417  and  _420
REMARK  168  A    between atoms: _420  and  _421
REMARK  169  A    between atoms: _424  and  _426
REMARK  170  A    between atoms: _426  and  _427
REMARK  171  A    between atoms: _426  and  _429
REMARK  172  A    between atoms: _429  and  _430
REMARK  173  A    between atoms: _432  and  _434
REMARK  174  A    between atoms: _434  and  _435
REMARK  175  A    between atoms: _437  and  _439
REMARK  176  A    between atoms: _439  and  _440
REMARK  177  A    between atoms: _439  and  _442
REMARK  178  A    between atoms: _442  and  _443
REMARK  179  A    between atoms: _446  and  _448
REMARK  180  A    between atoms: _448  and  _449
REMARK  181  A    between atoms: _448  and  _451
REMARK  182  A    between atoms: _451  and  _452
REMARK  183  A    between atoms: _454  and  _456
REMARK  184  A    between atoms: _456  and  _457
REMARK  185  A    between atoms: _460  and  _462
REMARK  186  A    between atoms: _462  and  _463
REMARK  187  A    between atoms: _462  and  _465
REMARK  188  A    between atoms: _465  and  _466
REMARK  189  A    between atoms: _469  and  _471
REMARK  190  A    between atoms: _471  and  _472
REMARK  191  A    between atoms: _471  and  _474
REMARK  192  A    between atoms: _474  and  _475
REMARK  193  A    between atoms: _478  and  _480
REMARK  194  A    between atoms: _480  and  _481
REMARK  195  A    between atoms: _480  and  _483
REMARK  196  A    between atoms: _487  and  _488
REMARK  197  A    between atoms: _493  and  _495
REMARK  198  A    between atoms: _495  and  _496
REMARK  199  A    between atoms: _495  and  _498
REMARK  200  A    between atoms: _498  and  _499
REMARK  201  A    between atoms: _504  and  _506
REMARK  202  A    between atoms: _506  and  _507
REMARK  203  A    between atoms: _506  and  _509
REMARK  204  A    between atoms: _509  and  _510
REMARK  205  A    between atoms: _513  and  _515
REMARK  206  A    between atoms: _515  and  _516
REMARK  207  A    between atoms: _515  and  _518
REMARK  208  A    between atoms: _518  and  _519
REMARK  209  A    between atoms: _522  and  _524
REMARK  210  A    between atoms: _524  and  _525
REMARK  211  A    between atoms: _524  and  _527
REMARK  212  A    between atoms: _527  and  _528
REMARK  213  A    between atoms: _531  and  _533
REMARK  214  A    between atoms: _533  and  _534
REMARK  215  A    between atoms: _533  and  _536
REMARK  216  A    between atoms: _536  and  _537
REMARK  217  A    between atoms: _543  and  _545
REMARK  218  A    between atoms: _545  and  _546
REMARK  219  A    between atoms: _545  and  _548
REMARK  220  A    between atoms: _548  and  _549
REMARK  221  A    between atoms: _552  and  _554
REMARK  222  A    between atoms: _554  and  _555
REMARK  223  A    between atoms: _554  and  _557
REMARK  224  A    between atoms: _557  and  _558
REMARK  225  A    between atoms: _564  and  _566
REMARK  226  A    between atoms: _566  and  _567
REMARK  227  A    between atoms: _566  and  _569
REMARK  228  A    between atoms: _569  and  _570
REMARK  229  A    between atoms: _573  and  _575
REMARK  230  A    between atoms: _575  and  _576
REMARK  231  A    between atoms: _575  and  _578
REMARK  232  A    between atoms: _578  and  _579
REMARK  233  A    between atoms: _582  and  _584
REMARK  234  A    between atoms: _584  and  _585
REMARK  235  A    between atoms: _587  and  _589
REMARK  236  A    between atoms: _589  and  _590
REMARK  237  A    between atoms: _589  and  _592
REMARK  238  A    between atoms: _592  and  _593
REMARK                            x       y       z     vdW  Elec       q    Type
REMARK                         _______ _______ _______ _____ _____    ______ ____
ROOT
ATOM      1  O   HOH     1      25.676  25.314   5.554  0.00  0.00    +0.000 OA
ENDROOT
TORSDOF 0
REMARK  Name = ../refined-set-2016/1lee/1lee_pocket.pdb
REMARK  238 active torsions:
REMARK  status: ('A' for Active; 'I' for Inactive)
REMARK    1  A    between atoms: _1  and  _3
REMARK    2  A    between atoms: _3  and  _4
REMARK    3  A    between atoms: _3  and  _6
REMARK    4  A    between atoms: _6  and  _7
REMARK    5  A    between atoms: _10  and  _12
REMARK    6  A    between atoms: _12  and  _13
REMARK    7  A    between atoms: _12  and  _15
REMARK    8  A    between atoms: _16  and  _17
REMARK    9  A    between atoms: _19  and  _21
REMARK   10  A    between atoms: _21  and  _22
REMARK   11  A    between atoms: _21  and  _24
REMARK   12  A    between atoms: _24  and  _25
REMARK   13  A    between atoms: _30  and  _31
REMARK   14  A    between atoms: _33  and  _35
REMARK   15  A    between atoms: _35  and  _36
REMARK   16  A    between atoms: _35  and  _38
REMARK   17  A    between atoms: _38  and  _39
REMARK   18  A    between atoms: _42  and  _44
REMARK   19  A    between atoms: _44  and  _45
REMARK   20  A    between atoms: _44  and  _47
REMARK   21  A    between atoms: _47  and  _48
REMARK   22  A    between atoms: _51  and  _53
REMARK   23  A    between atoms: _53  and  _54
REMARK   24  A    between atoms: _53  and  _56
REMARK   25  A    between atoms: _56  and  _57
REMARK   26  A    between atoms: _60  and  _62
REMARK   27  A    between atoms: _62  and  _63
REMARK   28  A    between atoms: _62  and  _65
REMARK   29  A    between atoms: _65  and  _66
REMARK   30  A    between atoms: _69  and  _71
REMARK   31  A    between atoms: _71  and  _72
REMARK   32  A    between atoms: _74  and  _76
REMARK   33  A    between atoms: _76  and  _77
REMARK   34  A    between atoms: _76  and  _79
REMARK   35  A    between atoms: _79  and  _80
REMARK   36  A    between atoms: _82  and  _84
REMARK   37  A    between atoms: _84  and  _85
REMARK   38  A    between atoms: _88  and  _90
REMARK   39  A    between atoms: _90  and  _91
REMARK   40  A    between atoms: _90  and  _93
REMARK   41  A    between atoms: _93  and  _94
REMARK   42  A    between atoms: _99  and  _101
REMARK   43  A    between atoms: _101  and  _102
REMARK   44  A    between atoms: _101  and  _104
REMARK   45  A    between atoms: _104  and  _105
REMARK   46  A    between atoms: _115  and  _117
REMARK   47  A    between atoms: _117  and  _118
REMARK   48  A    between atoms: _117  and  _120
REMARK   49  A    between atoms: _123  and  _125
REMARK   50  A    between atoms: _125  and  _126
REMARK   51  A    between atoms: _125  and  _128
REMARK   52  A    between atoms: _128  and  _129
REMARK   53  A    between atoms: _129  and  _130
REMARK   54  A    between atoms: _133  and  _135
REMARK   55  A    between atoms: _135  and  _136
REMARK   56  A    between atoms: _135  and  _138
REMARK   57  A    between atoms: _138  and  _139
REMARK   58  A    between atoms: _139  and  _140
REMARK   59  A    between atoms: _142  and  _144
REMARK   60  A    between atoms: _144  and  _145
REMARK   61  A    between atoms: _144  and  _147
REMARK   62  A    between atoms: _147  and  _148
REMARK   63  A    between atoms: _153  and  _155
REMARK   64  A    between atoms: _155  and  _156
REMARK   65  A    between atoms: _155  and  _158
REMARK   66  A    between atoms: _158  and  _159
REMARK   67  A    between atoms: _164  and  _165
REMARK   68  A    between atoms: _167  and  _169
REMARK   69  A    between atoms: _169  and  _170
REMARK   70  A    between atoms: _169  and  _172
REMARK   71  A    between atoms: _175  and  _177
REMARK   72  A    between atoms: _177  and  _178
REMARK   73  A    between atoms: _177  and  _180
REMARK   74  A    between atoms: _180  and  _181
REMARK   75  A    between atoms: _183  and  _185
REMARK   76  A    between atoms: _185  and  _186
REMARK   77  A    between atoms: _188  and  _190
REMARK   78  A    between atoms: _190  and  _191
REMARK   79  A    between atoms: _190  and  _193
REMARK   80  A    between atoms: _193  and  _194
REMARK   81  A    between atoms: _197  and  _199
REMARK   82  A    between atoms: _199  and  _200
REMARK   83  A    between atoms: _199  and  _202
REMARK   84  A    between atoms: _205  and  _207
REMARK   85  A    between atoms: _207  and  _208
REMARK   86  A    between atoms: _207  and  _210
REMARK   87  A    between atoms: _210  and  _211
REMARK   88  A    between atoms: _217  and  _219
REMARK   89  A    between atoms: _219  and  _220
REMARK   90  A    between atoms: _219  and  _222
REMARK   91  A    between atoms: _222  and  _223
REMARK   92  A    between atoms: _226  and  _228
REMARK   93  A    between atoms: _228  and  _229
REMARK   94  A    between atoms: _228  and  _231
REMARK   95  A    between atoms: _231  and  _232
REMARK   96  A    between atoms: _237  and  _238
REMARK   97  A    between atoms: _240  and  _242
REMARK   98  A    between atoms: _242  and  _243
REMARK   99  A    between atoms: _242  and  _245
REMARK  100  A    between atoms: _245  and  _246
REMARK  101  A    between atoms: _248  and  _250
REMARK  102  A    between atoms: _250  and  _251
REMARK  103  A    between atoms: _250  and  _253
REMARK  104  A    between atoms: _253  and  _254
REMARK  105  A    between atoms: _260  and  _262
REMARK  106  A    between atoms: _262  and  _263
REMARK  107  A    between atoms: _265  and  _267
REMARK  108  A    between atoms: _267  and  _268
REMARK  109  A    between atoms: _267  and  _270
REMARK  110  A    between atoms: _270  and  _271
REMARK  111  A    between atoms: _274  and  _276
REMARK  112  A    between atoms: _276  and  _277
REMARK  113  A    between atoms: _276  and  _279
REMARK  114  A    between atoms: _279  and  _280
REMARK  115  A    between atoms: _283  and  _285
REMARK  116  A    between atoms: _285  and  _286
REMARK  117  A    between atoms: _285  and  _288
REMARK  118  A    between atoms: _288  and  _289
REMARK  119  A    between atoms: _292  and  _294
REMARK  120  A    between atoms: _294  and  _295
REMARK  121  A    between atoms: _297  and  _299
REMARK  122  A    between atoms: _299  and  _300
REMARK  123  A    between atoms: _299  and  _302
REMARK  124  A    between atoms: _302  and  _303
REMARK  125  A    between atoms: _313  and  _315
REMARK  126  A    between atoms: _315  and  _316
REMARK  127  A    between atoms: _315  and  _318
REMARK  128  A    between atoms: _318  and  _319
REMARK  129  A    between atoms: _322  and  _324
REMARK  130  A    between atoms: _324  and  _325
REMARK  131  A    between atoms: _324  and  _327
REMARK  132  A    between atoms: _327  and  _328
REMARK  133  A    between atoms: _331  and  _333
REMARK  134  A    between atoms: _333  and  _334
REMARK  135  A    between atoms: _333  and  _336
REMARK  136  A    between atoms: _336  and  _337
REMARK  137  A    between atoms: _339  and  _341
REMARK  138  A    between atoms: _341  and  _342
REMARK  139  A    between atoms: _341  and  _344
REMARK  140  A    between atoms: _344  and  _345
REMARK  141  A    between atoms: _348  and  _350
REMARK  142  A    between atoms: _350  and  _351
REMARK  143  A    between atoms: _350  and  _353
REMARK  144  A    between atoms: _353  and  _354
REMARK  145  A    between atoms: _357  and  _359
REMARK  146  A    between atoms: _359  and  _360
REMARK  147  A    between atoms: _359  and  _362
REMARK  148  A    between atoms: _362  and  _363
REMARK  149  A    between atoms: _368  and  _369
REMARK  150  A    between atoms: _371  and  _373
REMARK  151  A    between atoms: _373  and  _374
REMARK  152  A    between atoms: _373  and  _376
REMARK  153  A    between atoms: _376  and  _377
REMARK  154  A    between atoms: _387  and  _389
REMARK  155  A    between atoms: _389  and  _390
REMARK  156  A    between atoms: _389  and  _392
REMARK  157  A    between atoms: _392  and  _393
REMARK  158  A    between atoms: _398  and  _400
REMARK  159  A    between atoms: _400  and  _401
REMARK  160  A    between atoms: _400  and  _403
REMARK  161  A    between atoms: _403  and  _404
REMARK  162  A    between atoms: _407  and  _409
REMARK  163  A    between atoms: _409  and  _410
REMARK  164  A    between atoms: _409  and  _412
REMARK  165  A    between atoms: _415  and  _417
REMARK  166  A    between atoms: _417  and  _418
REMARK  167  A    between atoms: _417  and  _420
REMARK  168  A    between atoms: _420  and  _421
REMARK  169  A    between atoms: _424  and  _426
REMARK  170  A    between atoms: _426  and  _427
REMARK  171  A    between atoms: _426  and  _429
REMARK  172  A    between atoms: _429  and  _430
REMARK  173  A    between atoms: _432  and  _434
REMARK  174  A    between atoms: _434  and  _435
REMARK  175  A    between atoms: _437  and  _439
REMARK  176  A    between atoms: _439  and  _440
REMARK  177  A    between atoms: _439  and  _442
REMARK  178  A    between atoms: _442  and  _443
REMARK  179  A    between atoms: _446  and  _448
REMARK  180  A    between atoms: _448  and  _449
REMARK  181  A    between atoms: _448  and  _451
REMARK  182  A    between atoms: _451  and  _452
REMARK  183  A    between atoms: _454  and  _456
REMARK  184  A    between atoms: _456  and  _457
REMARK  185  A    between atoms: _460  and  _462
REMARK  186  A    between atoms: _462  and  _463
REMARK  187  A    between atoms: _462  and  _465
REMARK  188  A    between atoms: _465  and  _466
REMARK  189  A    between atoms: _469  and  _471
REMARK  190  A    between atoms: _471  and  _472
REMARK  191  A    between atoms: _471  and  _474
REMARK  192  A    between atoms: _474  and  _475
REMARK  193  A    between atoms: _478  and  _480
REMARK  194  A    between atoms: _480  and  _481
REMARK  195  A    between atoms: _480  and  _483
REMARK  196  A    between atoms: _487  and  _488
REMARK  197  A    between atoms: _493  and  _495
REMARK  198  A    between atoms: _495  and  _496
REMARK  199  A    between atoms: _495  and  _498
REMARK  200  A    between atoms: _498  and  _499
REMARK  201  A    between atoms: _504  and  _506
REMARK  202  A    between atoms: _506  and  _507
REMARK  203  A    between atoms: _506  and  _509
REMARK  204  A    between atoms: _509  and  _510
REMARK  205  A    between atoms: _513  and  _515
REMARK  206  A    between atoms: _515  and  _516
REMARK  207  A    between atoms: _515  and  _518
REMARK  208  A    between atoms: _518  and  _519
REMARK  209  A    between atoms: _522  and  _524
REMARK  210  A    between atoms: _524  and  _525
REMARK  211  A    between atoms: _524  and  _527
REMARK  212  A    between atoms: _527  and  _528
REMARK  213  A    between atoms: _531  and  _533
REMARK  214  A    between atoms: _533  and  _534
REMARK  215  A    between atoms: _533  and  _536
REMARK  216  A    between atoms: _536  and  _537
REMARK  217  A    between atoms: _543  and  _545
REMARK  218  A    between atoms: _545  and  _546
REMARK  219  A    between atoms: _545  and  _548
REMARK  220  A    between atoms: _548  and  _549
REMARK  221  A    between atoms: _552  and  _554
REMARK  222  A    between atoms: _554  and  _555
REMARK  223  A    between atoms: _554  and  _557
REMARK  224  A    between atoms: _557  and  _558
REMARK  225  A    between atoms: _564  and  _566
REMARK  226  A    between atoms: _566  and  _567
REMARK  227  A    between atoms: _566  and  _569
REMARK  228  A    between atoms: _569  and  _570
REMARK  229  A    between atoms: _573  and  _575
REMARK  230  A    between atoms: _575  and  _576
REMARK  231  A    between atoms: _575  and  _578
REMARK  232  A    between atoms: _578  and  _579
REMARK  233  A    between atoms: _582  and  _584
REMARK  234  A    between atoms: _584  and  _585
REMARK  235  A    between atoms: _587  and  _589
REMARK  236  A    between atoms: _589  and  _590
REMARK  237  A    between atoms: _589  and  _592
REMARK  238  A    between atoms: _592  and  _593
REMARK                            x       y       z     vdW  Elec       q    Type
REMARK                         _______ _______ _______ _____ _____    ______ ____
ROOT
ATOM      1  O   HOH     1      29.393  23.527  12.973  0.00  0.00    +0.000 OA
ENDROOT
TORSDOF 0
REMARK  Name = ../refined-set-2016/1lee/1lee_pocket.pdb
REMARK  238 active torsions:
REMARK  status: ('A' for Active; 'I' for Inactive)
REMARK    1  A    between atoms: _1  and  _3
REMARK    2  A    between atoms: _3  and  _4
REMARK    3  A    between atoms: _3  and  _6
REMARK    4  A    between atoms: _6  and  _7
REMARK    5  A    between atoms: _10  and  _12
REMARK    6  A    between atoms: _12  and  _13
REMARK    7  A    between atoms: _12  and  _15
REMARK    8  A    between atoms: _16  and  _17
REMARK    9  A    between atoms: _19  and  _21
REMARK   10  A    between atoms: _21  and  _22
REMARK   11  A    between atoms: _21  and  _24
REMARK   12  A    between atoms: _24  and  _25
REMARK   13  A    between atoms: _30  and  _31
REMARK   14  A    between atoms: _33  and  _35
REMARK   15  A    between atoms: _35  and  _36
REMARK   16  A    between atoms: _35  and  _38
REMARK   17  A    between atoms: _38  and  _39
REMARK   18  A    between atoms: _42  and  _44
REMARK   19  A    between atoms: _44  and  _45
REMARK   20  A    between atoms: _44  and  _47
REMARK   21  A    between atoms: _47  and  _48
REMARK   22  A    between atoms: _51  and  _53
REMARK   23  A    between atoms: _53  and  _54
REMARK   24  A    between atoms: _53  and  _56
REMARK   25  A    between atoms: _56  and  _57
REMARK   26  A    between atoms: _60  and  _62
REMARK   27  A    between atoms: _62  and  _63
REMARK   28  A    between atoms: _62  and  _65
REMARK   29  A    between atoms: _65  and  _66
REMARK   30  A    between atoms: _69  and  _71
REMARK   31  A    between atoms: _71  and  _72
REMARK   32  A    between atoms: _74  and  _76
REMARK   33  A    between atoms: _76  and  _77
REMARK   34  A    between atoms: _76  and  _79
REMARK   35  A    between atoms: _79  and  _80
REMARK   36  A    between atoms: _82  and  _84
REMARK   37  A    between atoms: _84  and  _85
REMARK   38  A    between atoms: _88  and  _90
REMARK   39  A    between atoms: _90  and  _91
REMARK   40  A    between atoms: _90  and  _93
REMARK   41  A    between atoms: _93  and  _94
REMARK   42  A    between atoms: _99  and  _101
REMARK   43  A    between atoms: _101  and  _102
REMARK   44  A    between atoms: _101  and  _104
REMARK   45  A    between atoms: _104  and  _105
REMARK   46  A    between atoms: _115  and  _117
REMARK   47  A    between atoms: _117  and  _118
REMARK   48  A    between atoms: _117  and  _120
REMARK   49  A    between atoms: _123  and  _125
REMARK   50  A    between atoms: _125  and  _126
REMARK   51  A    between atoms: _125  and  _128
REMARK   52  A    between atoms: _128  and  _129
REMARK   53  A    between atoms: _129  and  _130
REMARK   54  A    between atoms: _133  and  _135
REMARK   55  A    between atoms: _135  and  _136
REMARK   56  A    between atoms: _135  and  _138
REMARK   57  A    between atoms: _138  and  _139
REMARK   58  A    between atoms: _139  and  _140
REMARK   59  A    between atoms: _142  and  _144
REMARK   60  A    between atoms: _144  and  _145
REMARK   61  A    between atoms: _144  and  _147
REMARK   62  A    between atoms: _147  and  _148
REMARK   63  A    between atoms: _153  and  _155
REMARK   64  A    between atoms: _155  and  _156
REMARK   65  A    between atoms: _155  and  _158
REMARK   66  A    between atoms: _158  and  _159
REMARK   67  A    between atoms: _164  and  _165
REMARK   68  A    between atoms: _167  and  _169
REMARK   69  A    between atoms: _169  and  _170
REMARK   70  A    between atoms: _169  and  _172
REMARK   71  A    between atoms: _175  and  _177
REMARK   72  A    between atoms: _177  and  _178
REMARK   73  A    between atoms: _177  and  _180
REMARK   74  A    between atoms: _180  and  _181
REMARK   75  A    between atoms: _183  and  _185
REMARK   76  A    between atoms: _185  and  _186
REMARK   77  A    between atoms: _188  and  _190
REMARK   78  A    between atoms: _190  and  _191
REMARK   79  A    between atoms: _190  and  _193
REMARK   80  A    between atoms: _193  and  _194
REMARK   81  A    between atoms: _197  and  _199
REMARK   82  A    between atoms: _199  and  _200
REMARK   83  A    between atoms: _199  and  _202
REMARK   84  A    between atoms: _205  and  _207
REMARK   85  A    between atoms: _207  and  _208
REMARK   86  A    between atoms: _207  and  _210
REMARK   87  A    between atoms: _210  and  _211
REMARK   88  A    between atoms: _217  and  _219
REMARK   89  A    between atoms: _219  and  _220
REMARK   90  A    between atoms: _219  and  _222
REMARK   91  A    between atoms: _222  and  _223
REMARK   92  A    between atoms: _226  and  _228
REMARK   93  A    between atoms: _228  and  _229
REMARK   94  A    between atoms: _228  and  _231
REMARK   95  A    between atoms: _231  and  _232
REMARK   96  A    between atoms: _237  and  _238
REMARK   97  A    between atoms: _240  and  _242
REMARK   98  A    between atoms: _242  and  _243
REMARK   99  A    between atoms: _242  and  _245
REMARK  100  A    between atoms: _245  and  _246
REMARK  101  A    between atoms: _248  and  _250
REMARK  102  A    between atoms: _250  and  _251
REMARK  103  A    between atoms: _250  and  _253
REMARK  104  A    between atoms: _253  and  _254
REMARK  105  A    between atoms: _260  and  _262
REMARK  106  A    between atoms: _262  and  _263
REMARK  107  A    between atoms: _265  and  _267
REMARK  108  A    between atoms: _267  and  _268
REMARK  109  A    between atoms: _267  and  _270
REMARK  110  A    between atoms: _270  and  _271
REMARK  111  A    between atoms: _274  and  _276
REMARK  112  A    between atoms: _276  and  _277
REMARK  113  A    between atoms: _276  and  _279
REMARK  114  A    between atoms: _279  and  _280
REMARK  115  A    between atoms: _283  and  _285
REMARK  116  A    between atoms: _285  and  _286
REMARK  117  A    between atoms: _285  and  _288
REMARK  118  A    between atoms: _288  and  _289
REMARK  119  A    between atoms: _292  and  _294
REMARK  120  A    between atoms: _294  and  _295
REMARK  121  A    between atoms: _297  and  _299
REMARK  122  A    between atoms: _299  and  _300
REMARK  123  A    between atoms: _299  and  _302
REMARK  124  A    between atoms: _302  and  _303
REMARK  125  A    between atoms: _313  and  _315
REMARK  126  A    between atoms: _315  and  _316
REMARK  127  A    between atoms: _315  and  _318
REMARK  128  A    between atoms: _318  and  _319
REMARK  129  A    between atoms: _322  and  _324
REMARK  130  A    between atoms: _324  and  _325
REMARK  131  A    between atoms: _324  and  _327
REMARK  132  A    between atoms: _327  and  _328
REMARK  133  A    between atoms: _331  and  _333
REMARK  134  A    between atoms: _333  and  _334
REMARK  135  A    between atoms: _333  and  _336
REMARK  136  A    between atoms: _336  and  _337
REMARK  137  A    between atoms: _339  and  _341
REMARK  138  A    between atoms: _341  and  _342
REMARK  139  A    between atoms: _341  and  _344
REMARK  140  A    between atoms: _344  and  _345
REMARK  141  A    between atoms: _348  and  _350
REMARK  142  A    between atoms: _350  and  _351
REMARK  143  A    between atoms: _350  and  _353
REMARK  144  A    between atoms: _353  and  _354
REMARK  145  A    between atoms: _357  and  _359
REMARK  146  A    between atoms: _359  and  _360
REMARK  147  A    between atoms: _359  and  _362
REMARK  148  A    between atoms: _362  and  _363
REMARK  149  A    between atoms: _368  and  _369
REMARK  150  A    between atoms: _371  and  _373
REMARK  151  A    between atoms: _373  and  _374
REMARK  152  A    between atoms: _373  and  _376
REMARK  153  A    between atoms: _376  and  _377
REMARK  154  A    between atoms: _387  and  _389
REMARK  155  A    between atoms: _389  and  _390
REMARK  156  A    between atoms: _389  and  _392
REMARK  157  A    between atoms: _392  and  _393
REMARK  158  A    between atoms: _398  and  _400
REMARK  159  A    between atoms: _400  and  _401
REMARK  160  A    between atoms: _400  and  _403
REMARK  161  A    between atoms: _403  and  _404
REMARK  162  A    between atoms: _407  and  _409
REMARK  163  A    between atoms: _409  and  _410
REMARK  164  A    between atoms: _409  and  _412
REMARK  165  A    between atoms: _415  and  _417
REMARK  166  A    between atoms: _417  and  _418
REMARK  167  A    between atoms: _417  and  _420
REMARK  168  A    between atoms: _420  and  _421
REMARK  169  A    between atoms: _424  and  _426
REMARK  170  A    between atoms: _426  and  _427
REMARK  171  A    between atoms: _426  and  _429
REMARK  172  A    between atoms: _429  and  _430
REMARK  173  A    between atoms: _432  and  _434
REMARK  174  A    between atoms: _434  and  _435
REMARK  175  A    between atoms: _437  and  _439
REMARK  176  A    between atoms: _439  and  _440
REMARK  177  A    between atoms: _439  and  _442
REMARK  178  A    between atoms: _442  and  _443
REMARK  179  A    between atoms: _446  and  _448
REMARK  180  A    between atoms: _448  and  _449
REMARK  181  A    between atoms: _448  and  _451
REMARK  182  A    between atoms: _451  and  _452
REMARK  183  A    between atoms: _454  and  _456
REMARK  184  A    between atoms: _456  and  _457
REMARK  185  A    between atoms: _460  and  _462
REMARK  186  A    between atoms: _462  and  _463
REMARK  187  A    between atoms: _462  and  _465
REMARK  188  A    between atoms: _465  and  _466
REMARK  189  A    between atoms: _469  and  _471
REMARK  190  A    between atoms: _471  and  _472
REMARK  191  A    between atoms: _471  and  _474
REMARK  192  A    between atoms: _474  and  _475
REMARK  193  A    between atoms: _478  and  _480
REMARK  194  A    between atoms: _480  and  _481
REMARK  195  A    between atoms: _480  and  _483
REMARK  196  A    between atoms: _487  and  _488
REMARK  197  A    between atoms: _493  and  _495
REMARK  198  A    between atoms: _495  and  _496
REMARK  199  A    between atoms: _495  and  _498
REMARK  200  A    between atoms: _498  and  _499
REMARK  201  A    between atoms: _504  and  _506
REMARK  202  A    between atoms: _506  and  _507
REMARK  203  A    between atoms: _506  and  _509
REMARK  204  A    between atoms: _509  and  _510
REMARK  205  A    between atoms: _513  and  _515
REMARK  206  A    between atoms: _515  and  _516
REMARK  207  A    between atoms: _515  and  _518
REMARK  208  A    between atoms: _518  and  _519
REMARK  209  A    between atoms: _522  and  _524
REMARK  210  A    between atoms: _524  and  _525
REMARK  211  A    between atoms: _524  and  _527
REMARK  212  A    between atoms: _527  and  _528
REMARK  213  A    between atoms: _531  and  _533
REMARK  214  A    between atoms: _533  and  _534
REMARK  215  A    between atoms: _533  and  _536
REMARK  216  A    between atoms: _536  and  _537
REMARK  217  A    between atoms: _543  and  _545
REMARK  218  A    between atoms: _545  and  _546
REMARK  219  A    between atoms: _545  and  _548
REMARK  220  A    between atoms: _548  and  _549
REMARK  221  A    between atoms: _552  and  _554
REMARK  222  A    between atoms: _554  and  _555
REMARK  223  A    between atoms: _554  and  _557
REMARK  224  A    between atoms: _557  and  _558
REMARK  225  A    between atoms: _564  and  _566
REMARK  226  A    between atoms: _566  and  _567
REMARK  227  A    between atoms: _566  and  _569
REMARK  228  A    between atoms: _569  and  _570
REMARK  229  A    between atoms: _573  and  _575
REMARK  230  A    between atoms: _575  and  _576
REMARK  231  A    between atoms: _575  and  _578
REMARK  232  A    between atoms: _578  and  _579
REMARK  233  A    between atoms: _582  and  _584
REMARK  234  A    between atoms: _584  and  _585
REMARK  235  A    between atoms: _587  and  _589
REMARK  236  A    between atoms: _589  and  _590
REMARK  237  A    between atoms: _589  and  _592
REMARK  238  A    between atoms: _592  and  _593
REMARK                            x       y       z     vdW  Elec       q    Type
REMARK                         _______ _______ _______ _____ _____    ______ ____
ROOT
ATOM      1  O   HOH     1      38.862  36.886  19.794  0.00  0.00    +0.000 OA
ENDROOT
TORSDOF 0
REMARK  Name = ../refined-set-2016/1lee/1lee_pocket.pdb
REMARK  238 active torsions:
REMARK  status: ('A' for Active; 'I' for Inactive)
REMARK    1  A    between atoms: _1  and  _3
REMARK    2  A    between atoms: _3  and  _4
REMARK    3  A    between atoms: _3  and  _6
REMARK    4  A    between atoms: _6  and  _7
REMARK    5  A    between atoms: _10  and  _12
REMARK    6  A    between atoms: _12  and  _13
REMARK    7  A    between atoms: _12  and  _15
REMARK    8  A    between atoms: _16  and  _17
REMARK    9  A    between atoms: _19  and  _21
REMARK   10  A    between atoms: _21  and  _22
REMARK   11  A    between atoms: _21  and  _24
REMARK   12  A    between atoms: _24  and  _25
REMARK   13  A    between atoms: _30  and  _31
REMARK   14  A    between atoms: _33  and  _35
REMARK   15  A    between atoms: _35  and  _36
REMARK   16  A    between atoms: _35  and  _38
REMARK   17  A    between atoms: _38  and  _39
REMARK   18  A    between atoms: _42  and  _44
REMARK   19  A    between atoms: _44  and  _45
REMARK   20  A    between atoms: _44  and  _47
REMARK   21  A    between atoms: _47  and  _48
REMARK   22  A    between atoms: _51  and  _53
REMARK   23  A    between atoms: _53  and  _54
REMARK   24  A    between atoms: _53  and  _56
REMARK   25  A    between atoms: _56  and  _57
REMARK   26  A    between atoms: _60  and  _62
REMARK   27  A    between atoms: _62  and  _63
REMARK   28  A    between atoms: _62  and  _65
REMARK   29  A    between atoms: _65  and  _66
REMARK   30  A    between atoms: _69  and  _71
REMARK   31  A    between atoms: _71  and  _72
REMARK   32  A    between atoms: _74  and  _76
REMARK   33  A    between atoms: _76  and  _77
REMARK   34  A    between atoms: _76  and  _79
REMARK   35  A    between atoms: _79  and  _80
REMARK   36  A    between atoms: _82  and  _84
REMARK   37  A    between atoms: _84  and  _85
REMARK   38  A    between atoms: _88  and  _90
REMARK   39  A    between atoms: _90  and  _91
REMARK   40  A    between atoms: _90  and  _93
REMARK   41  A    between atoms: _93  and  _94
REMARK   42  A    between atoms: _99  and  _101
REMARK   43  A    between atoms: _101  and  _102
REMARK   44  A    between atoms: _101  and  _104
REMARK   45  A    between atoms: _104  and  _105
REMARK   46  A    between atoms: _115  and  _117
REMARK   47  A    between atoms: _117  and  _118
REMARK   48  A    between atoms: _117  and  _120
REMARK   49  A    between atoms: _123  and  _125
REMARK   50  A    between atoms: _125  and  _126
REMARK   51  A    between atoms: _125  and  _128
REMARK   52  A    between atoms: _128  and  _129
REMARK   53  A    between atoms: _129  and  _130
REMARK   54  A    between atoms: _133  and  _135
REMARK   55  A    between atoms: _135  and  _136
REMARK   56  A    between atoms: _135  and  _138
REMARK   57  A    between atoms: _138  and  _139
REMARK   58  A    between atoms: _139  and  _140
REMARK   59  A    between atoms: _142  and  _144
REMARK   60  A    between atoms: _144  and  _145
REMARK   61  A    between atoms: _144  and  _147
REMARK   62  A    between atoms: _147  and  _148
REMARK   63  A    between atoms: _153  and  _155
REMARK   64  A    between atoms: _155  and  _156
REMARK   65  A    between atoms: _155  and  _158
REMARK   66  A    between atoms: _158  and  _159
REMARK   67  A    between atoms: _164  and  _165
REMARK   68  A    between atoms: _167  and  _169
REMARK   69  A    between atoms: _169  and  _170
REMARK   70  A    between atoms: _169  and  _172
REMARK   71  A    between atoms: _175  and  _177
REMARK   72  A    between atoms: _177  and  _178
REMARK   73  A    between atoms: _177  and  _180
REMARK   74  A    between atoms: _180  and  _181
REMARK   75  A    between atoms: _183  and  _185
REMARK   76  A    between atoms: _185  and  _186
REMARK   77  A    between atoms: _188  and  _190
REMARK   78  A    between atoms: _190  and  _191
REMARK   79  A    between atoms: _190  and  _193
REMARK   80  A    between atoms: _193  and  _194
REMARK   81  A    between atoms: _197  and  _199
REMARK   82  A    between atoms: _199  and  _200
REMARK   83  A    between atoms: _199  and  _202
REMARK   84  A    between atoms: _205  and  _207
REMARK   85  A    between atoms: _207  and  _208
REMARK   86  A    between atoms: _207  and  _210
REMARK   87  A    between atoms: _210  and  _211
REMARK   88  A    between atoms: _217  and  _219
REMARK   89  A    between atoms: _219  and  _220
REMARK   90  A    between atoms: _219  and  _222
REMARK   91  A    between atoms: _222  and  _223
REMARK   92  A    between atoms: _226  and  _228
REMARK   93  A    between atoms: _228  and  _229
REMARK   94  A    between atoms: _228  and  _231
REMARK   95  A    between atoms: _231  and  _232
REMARK   96  A    between atoms: _237  and  _238
REMARK   97  A    between atoms: _240  and  _242
REMARK   98  A    between atoms: _242  and  _243
REMARK   99  A    between atoms: _242  and  _245
REMARK  100  A    between atoms: _245  and  _246
REMARK  101  A    between atoms: _248  and  _250
REMARK  102  A    between atoms: _250  and  _251
REMARK  103  A    between atoms: _250  and  _253
REMARK  104  A    between atoms: _253  and  _254
REMARK  105  A    between atoms: _260  and  _262
REMARK  106  A    between atoms: _262  and  _263
REMARK  107  A    between atoms: _265  and  _267
REMARK  108  A    between atoms: _267  and  _268
REMARK  109  A    between atoms: _267  and  _270
REMARK  110  A    between atoms: _270  and  _271
REMARK  111  A    between atoms: _274  and  _276
REMARK  112  A    between atoms: _276  and  _277
REMARK  113  A    between atoms: _276  and  _279
REMARK  114  A    between atoms: _279  and  _280
REMARK  115  A    between atoms: _283  and  _285
REMARK  116  A    between atoms: _285  and  _286
REMARK  117  A    between atoms: _285  and  _288
REMARK  118  A    between atoms: _288  and  _289
REMARK  119  A    between atoms: _292  and  _294
REMARK  120  A    between atoms: _294  and  _295
REMARK  121  A    between atoms: _297  and  _299
REMARK  122  A    between atoms: _299  and  _300
REMARK  123  A    between atoms: _299  and  _302
REMARK  124  A    between atoms: _302  and  _303
REMARK  125  A    between atoms: _313  and  _315
REMARK  126  A    between atoms: _315  and  _316
REMARK  127  A    between atoms: _315  and  _318
REMARK  128  A    between atoms: _318  and  _319
REMARK  129  A    between atoms: _322  and  _324
REMARK  130  A    between atoms: _324  and  _325
REMARK  131  A    between atoms: _324  and  _327
REMARK  132  A    between atoms: _327  and  _328
REMARK  133  A    between atoms: _331  and  _333
REMARK  134  A    between atoms: _333  and  _334
REMARK  135  A    between atoms: _333  and  _336
REMARK  136  A    between atoms: _336  and  _337
REMARK  137  A    between atoms: _339  and  _341
REMARK  138  A    between atoms: _341  and  _342
REMARK  139  A    between atoms: _341  and  _344
REMARK  140  A    between atoms: _344  and  _345
REMARK  141  A    between atoms: _348  and  _350
REMARK  142  A    between atoms: _350  and  _351
REMARK  143  A    between atoms: _350  and  _353
REMARK  144  A    between atoms: _353  and  _354
REMARK  145  A    between atoms: _357  and  _359
REMARK  146  A    between atoms: _359  and  _360
REMARK  147  A    between atoms: _359  and  _362
REMARK  148  A    between atoms: _362  and  _363
REMARK  149  A    between atoms: _368  and  _369
REMARK  150  A    between atoms: _371  and  _373
REMARK  151  A    between atoms: _373  and  _374
REMARK  152  A    between atoms: _373  and  _376
REMARK  153  A    between atoms: _376  and  _377
REMARK  154  A    between atoms: _387  and  _389
REMARK  155  A    between atoms: _389  and  _390
REMARK  156  A    between atoms: _389  and  _392
REMARK  157  A    between atoms: _392  and  _393
REMARK  158  A    between atoms: _398  and  _400
REMARK  159  A    between atoms: _400  and  _401
REMARK  160  A    between atoms: _400  and  _403
REMARK  161  A    between atoms: _403  and  _404
REMARK  162  A    between atoms: _407  and  _409
REMARK  163  A    between atoms: _409  and  _410
REMARK  164  A    between atoms: _409  and  _412
REMARK  165  A    between atoms: _415  and  _417
REMARK  166  A    between atoms: _417  and  _418
REMARK  167  A    between atoms: _417  and  _420
REMARK  168  A    between atoms: _420  and  _421
REMARK  169  A    between atoms: _424  and  _426
REMARK  170  A    between atoms: _426  and  _427
REMARK  171  A    between atoms: _426  and  _429
REMARK  172  A    between atoms: _429  and  _430
REMARK  173  A    between atoms: _432  and  _434
REMARK  174  A    between atoms: _434  and  _435
REMARK  175  A    between atoms: _437  and  _439
REMARK  176  A    between atoms: _439  and  _440
REMARK  177  A    between atoms: _439  and  _442
REMARK  178  A    between atoms: _442  and  _443
REMARK  179  A    between atoms: _446  and  _448
REMARK  180  A    between atoms: _448  and  _449
REMARK  181  A    between atoms: _448  and  _451
REMARK  182  A    between atoms: _451  and  _452
REMARK  183  A    between atoms: _454  and  _456
REMARK  184  A    between atoms: _456  and  _457
REMARK  185  A    between atoms: _460  and  _462
REMARK  186  A    between atoms: _462  and  _463
REMARK  187  A    between atoms: _462  and  _465
REMARK  188  A    between atoms: _465  and  _466
REMARK  189  A    between atoms: _469  and  _471
REMARK  190  A    between atoms: _471  and  _472
REMARK  191  A    between atoms: _471  and  _474
REMARK  192  A    between atoms: _474  and  _475
REMARK  193  A    between atoms: _478  and  _480
REMARK  194  A    between atoms: _480  and  _481
REMARK  195  A    between atoms: _480  and  _483
REMARK  196  A    between atoms: _487  and  _488
REMARK  197  A    between atoms: _493  and  _495
REMARK  198  A    between atoms: _495  and  _496
REMARK  199  A    between atoms: _495  and  _498
REMARK  200  A    between atoms: _498  and  _499
REMARK  201  A    between atoms: _504  and  _506
REMARK  202  A    between atoms: _506  and  _507
REMARK  203  A    between atoms: _506  and  _509
REMARK  204  A    between atoms: _509  and  _510
REMARK  205  A    between atoms: _513  and  _515
REMARK  206  A    between atoms: _515  and  _516
REMARK  207  A    between atoms: _515  and  _518
REMARK  208  A    between atoms: _518  and  _519
REMARK  209  A    between atoms: _522  and  _524
REMARK  210  A    between atoms: _524  and  _525
REMARK  211  A    between atoms: _524  and  _527
REMARK  212  A    between atoms: _527  and  _528
REMARK  213  A    between atoms: _531  and  _533
REMARK  214  A    between atoms: _533  and  _534
REMARK  215  A    between atoms: _533  and  _536
REMARK  216  A    between atoms: _536  and  _537
REMARK  217  A    between atoms: _543  and  _545
REMARK  218  A    between atoms: _545  and  _546
REMARK  219  A    between atoms: _545  and  _548
REMARK  220  A    between atoms: _548  and  _549
REMARK  221  A    between atoms: _552  and  _554
REMARK  222  A    between atoms: _554  and  _555
REMARK  223  A    between atoms: _554  and  _557
REMARK  224  A    between atoms: _557  and  _558
REMARK  225  A    between atoms: _564  and  _566
REMARK  226  A    between atoms: _566  and  _567
REMARK  227  A    between atoms: _566  and  _569
REMARK  228  A    between atoms: _569  and  _570
REMARK  229  A    between atoms: _573  and  _575
REMARK  230  A    between atoms: _575  and  _576
REMARK  231  A    between atoms: _575  and  _578
REMARK  232  A    between atoms: _578  and  _579
REMARK  233  A    between atoms: _582  and  _584
REMARK  234  A    between atoms: _584  and  _585
REMARK  235  A    between atoms: _587  and  _589
REMARK  236  A    between atoms: _589  and  _590
REMARK  237  A    between atoms: _589  and  _592
REMARK  238  A    between atoms: _592  and  _593
REMARK                            x       y       z     vdW  Elec       q    Type
REMARK                         _______ _______ _______ _____ _____    ______ ____
ROOT
ATOM      1  O   HOH     1      34.726  39.948  12.008  0.00  0.00    +0.000 OA
ENDROOT
TORSDOF 0
REMARK  Name = ../refined-set-2016/1lee/1lee_pocket.pdb
REMARK  238 active torsions:
REMARK  status: ('A' for Active; 'I' for Inactive)
REMARK    1  A    between atoms: _1  and  _3
REMARK    2  A    between atoms: _3  and  _4
REMARK    3  A    between atoms: _3  and  _6
REMARK    4  A    between atoms: _6  and  _7
REMARK    5  A    between atoms: _10  and  _12
REMARK    6  A    between atoms: _12  and  _13
REMARK    7  A    between atoms: _12  and  _15
REMARK    8  A    between atoms: _16  and  _17
REMARK    9  A    between atoms: _19  and  _21
REMARK   10  A    between atoms: _21  and  _22
REMARK   11  A    between atoms: _21  and  _24
REMARK   12  A    between atoms: _24  and  _25
REMARK   13  A    between atoms: _30  and  _31
REMARK   14  A    between atoms: _33  and  _35
REMARK   15  A    between atoms: _35  and  _36
REMARK   16  A    between atoms: _35  and  _38
REMARK   17  A    between atoms: _38  and  _39
REMARK   18  A    between atoms: _42  and  _44
REMARK   19  A    between atoms: _44  and  _45
REMARK   20  A    between atoms: _44  and  _47
REMARK   21  A    between atoms: _47  and  _48
REMARK   22  A    between atoms: _51  and  _53
REMARK   23  A    between atoms: _53  and  _54
REMARK   24  A    between atoms: _53  and  _56
REMARK   25  A    between atoms: _56  and  _57
REMARK   26  A    between atoms: _60  and  _62
REMARK   27  A    between atoms: _62  and  _63
REMARK   28  A    between atoms: _62  and  _65
REMARK   29  A    between atoms: _65  and  _66
REMARK   30  A    between atoms: _69  and  _71
REMARK   31  A    between atoms: _71  and  _72
REMARK   32  A    between atoms: _74  and  _76
REMARK   33  A    between atoms: _76  and  _77
REMARK   34  A    between atoms: _76  and  _79
REMARK   35  A    between atoms: _79  and  _80
REMARK   36  A    between atoms: _82  and  _84
REMARK   37  A    between atoms: _84  and  _85
REMARK   38  A    between atoms: _88  and  _90
REMARK   39  A    between atoms: _90  and  _91
REMARK   40  A    between atoms: _90  and  _93
REMARK   41  A    between atoms: _93  and  _94
REMARK   42  A    between atoms: _99  and  _101
REMARK   43  A    between atoms: _101  and  _102
REMARK   44  A    between atoms: _101  and  _104
REMARK   45  A    between atoms: _104  and  _105
REMARK   46  A    between atoms: _115  and  _117
REMARK   47  A    between atoms: _117  and  _118
REMARK   48  A    between atoms: _117  and  _120
REMARK   49  A    between atoms: _123  and  _125
REMARK   50  A    between atoms: _125  and  _126
REMARK   51  A    between atoms: _125  and  _128
REMARK   52  A    between atoms: _128  and  _129
REMARK   53  A    between atoms: _129  and  _130
REMARK   54  A    between atoms: _133  and  _135
REMARK   55  A    between atoms: _135  and  _136
REMARK   56  A    between atoms: _135  and  _138
REMARK   57  A    between atoms: _138  and  _139
REMARK   58  A    between atoms: _139  and  _140
REMARK   59  A    between atoms: _142  and  _144
REMARK   60  A    between atoms: _144  and  _145
REMARK   61  A    between atoms: _144  and  _147
REMARK   62  A    between atoms: _147  and  _148
REMARK   63  A    between atoms: _153  and  _155
REMARK   64  A    between atoms: _155  and  _156
REMARK   65  A    between atoms: _155  and  _158
REMARK   66  A    between atoms: _158  and  _159
REMARK   67  A    between atoms: _164  and  _165
REMARK   68  A    between atoms: _167  and  _169
REMARK   69  A    between atoms: _169  and  _170
REMARK   70  A    between atoms: _169  and  _172
REMARK   71  A    between atoms: _175  and  _177
REMARK   72  A    between atoms: _177  and  _178
REMARK   73  A    between atoms: _177  and  _180
REMARK   74  A    between atoms: _180  and  _181
REMARK   75  A    between atoms: _183  and  _185
REMARK   76  A    between atoms: _185  and  _186
REMARK   77  A    between atoms: _188  and  _190
REMARK   78  A    between atoms: _190  and  _191
REMARK   79  A    between atoms: _190  and  _193
REMARK   80  A    between atoms: _193  and  _194
REMARK   81  A    between atoms: _197  and  _199
REMARK   82  A    between atoms: _199  and  _200
REMARK   83  A    between atoms: _199  and  _202
REMARK   84  A    between atoms: _205  and  _207
REMARK   85  A    between atoms: _207  and  _208
REMARK   86  A    between atoms: _207  and  _210
REMARK   87  A    between atoms: _210  and  _211
REMARK   88  A    between atoms: _217  and  _219
REMARK   89  A    between atoms: _219  and  _220
REMARK   90  A    between atoms: _219  and  _222
REMARK   91  A    between atoms: _222  and  _223
REMARK   92  A    between atoms: _226  and  _228
REMARK   93  A    between atoms: _228  and  _229
REMARK   94  A    between atoms: _228  and  _231
REMARK   95  A    between atoms: _231  and  _232
REMARK   96  A    between atoms: _237  and  _238
REMARK   97  A    between atoms: _240  and  _242
REMARK   98  A    between atoms: _242  and  _243
REMARK   99  A    between atoms: _242  and  _245
REMARK  100  A    between atoms: _245  and  _246
REMARK  101  A    between atoms: _248  and  _250
REMARK  102  A    between atoms: _250  and  _251
REMARK  103  A    between atoms: _250  and  _253
REMARK  104  A    between atoms: _253  and  _254
REMARK  105  A    between atoms: _260  and  _262
REMARK  106  A    between atoms: _262  and  _263
REMARK  107  A    between atoms: _265  and  _267
REMARK  108  A    between atoms: _267  and  _268
REMARK  109  A    between atoms: _267  and  _270
REMARK  110  A    between atoms: _270  and  _271
REMARK  111  A    between atoms: _274  and  _276
REMARK  112  A    between atoms: _276  and  _277
REMARK  113  A    between atoms: _276  and  _279
REMARK  114  A    between atoms: _279  and  _280
REMARK  115  A    between atoms: _283  and  _285
REMARK  116  A    between atoms: _285  and  _286
REMARK  117  A    between atoms: _285  and  _288
REMARK  118  A    between atoms: _288  and  _289
REMARK  119  A    between atoms: _292  and  _294
REMARK  120  A    between atoms: _294  and  _295
REMARK  121  A    between atoms: _297  and  _299
REMARK  122  A    between atoms: _299  and  _300
REMARK  123  A    between atoms: _299  and  _302
REMARK  124  A    between atoms: _302  and  _303
REMARK  125  A    between atoms: _313  and  _315
REMARK  126  A    between atoms: _315  and  _316
REMARK  127  A    between atoms: _315  and  _318
REMARK  128  A    between atoms: _318  and  _319
REMARK  129  A    between atoms: _322  and  _324
REMARK  130  A    between atoms: _324  and  _325
REMARK  131  A    between atoms: _324  and  _327
REMARK  132  A    between atoms: _327  and  _328
REMARK  133  A    between atoms: _331  and  _333
REMARK  134  A    between atoms: _333  and  _334
REMARK  135  A    between atoms: _333  and  _336
REMARK  136  A    between atoms: _336  and  _337
REMARK  137  A    between atoms: _339  and  _341
REMARK  138  A    between atoms: _341  and  _342
REMARK  139  A    between atoms: _341  and  _344
REMARK  140  A    between atoms: _344  and  _345
REMARK  141  A    between atoms: _348  and  _350
REMARK  142  A    between atoms: _350  and  _351
REMARK  143  A    between atoms: _350  and  _353
REMARK  144  A    between atoms: _353  and  _354
REMARK  145  A    between atoms: _357  and  _359
REMARK  146  A    between atoms: _359  and  _360
REMARK  147  A    between atoms: _359  and  _362
REMARK  148  A    between atoms: _362  and  _363
REMARK  149  A    between atoms: _368  and  _369
REMARK  150  A    between atoms: _371  and  _373
REMARK  151  A    between atoms: _373  and  _374
REMARK  152  A    between atoms: _373  and  _376
REMARK  153  A    between atoms: _376  and  _377
REMARK  154  A    between atoms: _387  and  _389
REMARK  155  A    between atoms: _389  and  _390
REMARK  156  A    between atoms: _389  and  _392
REMARK  157  A    between atoms: _392  and  _393
REMARK  158  A    between atoms: _398  and  _400
REMARK  159  A    between atoms: _400  and  _401
REMARK  160  A    between atoms: _400  and  _403
REMARK  161  A    between atoms: _403  and  _404
REMARK  162  A    between atoms: _407  and  _409
REMARK  163  A    between atoms: _409  and  _410
REMARK  164  A    between atoms: _409  and  _412
REMARK  165  A    between atoms: _415  and  _417
REMARK  166  A    between atoms: _417  and  _418
REMARK  167  A    between atoms: _417  and  _420
REMARK  168  A    between atoms: _420  and  _421
REMARK  169  A    between atoms: _424  and  _426
REMARK  170  A    between atoms: _426  and  _427
REMARK  171  A    between atoms: _426  and  _429
REMARK  172  A    between atoms: _429  and  _430
REMARK  173  A    between atoms: _432  and  _434
REMARK  174  A    between atoms: _434  and  _435
REMARK  175  A    between atoms: _437  and  _439
REMARK  176  A    between atoms: _439  and  _440
REMARK  177  A    between atoms: _439  and  _442
REMARK  178  A    between atoms: _442  and  _443
REMARK  179  A    between atoms: _446  and  _448
REMARK  180  A    between atoms: _448  and  _449
REMARK  181  A    between atoms: _448  and  _451
REMARK  182  A    between atoms: _451  and  _452
REMARK  183  A    between atoms: _454  and  _456
REMARK  184  A    between atoms: _456  and  _457
REMARK  185  A    between atoms: _460  and  _462
REMARK  186  A    between atoms: _462  and  _463
REMARK  187  A    between atoms: _462  and  _465
REMARK  188  A    between atoms: _465  and  _466
REMARK  189  A    between atoms: _469  and  _471
REMARK  190  A    between atoms: _471  and  _472
REMARK  191  A    between atoms: _471  and  _474
REMARK  192  A    between atoms: _474  and  _475
REMARK  193  A    between atoms: _478  and  _480
REMARK  194  A    between atoms: _480  and  _481
REMARK  195  A    between atoms: _480  and  _483
REMARK  196  A    between atoms: _487  and  _488
REMARK  197  A    between atoms: _493  and  _495
REMARK  198  A    between atoms: _495  and  _496
REMARK  199  A    between atoms: _495  and  _498
REMARK  200  A    between atoms: _498  and  _499
REMARK  201  A    between atoms: _504  and  _506
REMARK  202  A    between atoms: _506  and  _507
REMARK  203  A    between atoms: _506  and  _509
REMARK  204  A    between atoms: _509  and  _510
REMARK  205  A    between atoms: _513  and  _515
REMARK  206  A    between atoms: _515  and  _516
REMARK  207  A    between atoms: _515  and  _518
REMARK  208  A    between atoms: _518  and  _519
REMARK  209  A    between atoms: _522  and  _524
REMARK  210  A    between atoms: _524  and  _525
REMARK  211  A    between atoms: _524  and  _527
REMARK  212  A    between atoms: _527  and  _528
REMARK  213  A    between atoms: _531  and  _533
REMARK  214  A    between atoms: _533  and  _534
REMARK  215  A    between atoms: _533  and  _536
REMARK  216  A    between atoms: _536  and  _537
REMARK  217  A    between atoms: _543  and  _545
REMARK  218  A    between atoms: _545  and  _546
REMARK  219  A    between atoms: _545  and  _548
REMARK  220  A    between atoms: _548  and  _549
REMARK  221  A    between atoms: _552  and  _554
REMARK  222  A    between atoms: _554  and  _555
REMARK  223  A    between atoms: _554  and  _557
REMARK  224  A    between atoms: _557  and  _558
REMARK  225  A    between atoms: _564  and  _566
REMARK  226  A    between atoms: _566  and  _567
REMARK  227  A    between atoms: _566  and  _569
REMARK  228  A    between atoms: _569  and  _570
REMARK  229  A    between atoms: _573  and  _575
REMARK  230  A    between atoms: _575  and  _576
REMARK  231  A    between atoms: _575  and  _578
REMARK  232  A    between atoms: _578  and  _579
REMARK  233  A    between atoms: _582  and  _584
REMARK  234  A    between atoms: _584  and  _585
REMARK  235  A    between atoms: _587  and  _589
REMARK  236  A    between atoms: _589  and  _590
REMARK  237  A    between atoms: _589  and  _592
REMARK  238  A    between atoms: _592  and  _593
REMARK                            x       y       z     vdW  Elec       q    Type
REMARK                         _______ _______ _______ _____ _____    ______ ____
ROOT
ATOM      1  O   HOH     1      36.281  22.987   7.494  0.00  0.00    +0.000 OA
ENDROOT
TORSDOF 0
REMARK  Name = ../refined-set-2016/1lee/1lee_pocket.pdb
REMARK  238 active torsions:
REMARK  status: ('A' for Active; 'I' for Inactive)
REMARK    1  A    between atoms: _1  and  _3
REMARK    2  A    between atoms: _3  and  _4
REMARK    3  A    between atoms: _3  and  _6
REMARK    4  A    between atoms: _6  and  _7
REMARK    5  A    between atoms: _10  and  _12
REMARK    6  A    between atoms: _12  and  _13
REMARK    7  A    between atoms: _12  and  _15
REMARK    8  A    between atoms: _16  and  _17
REMARK    9  A    between atoms: _19  and  _21
REMARK   10  A    between atoms: _21  and  _22
REMARK   11  A    between atoms: _21  and  _24
REMARK   12  A    between atoms: _24  and  _25
REMARK   13  A    between atoms: _30  and  _31
REMARK   14  A    between atoms: _33  and  _35
REMARK   15  A    between atoms: _35  and  _36
REMARK   16  A    between atoms: _35  and  _38
REMARK   17  A    between atoms: _38  and  _39
REMARK   18  A    between atoms: _42  and  _44
REMARK   19  A    between atoms: _44  and  _45
REMARK   20  A    between atoms: _44  and  _47
REMARK   21  A    between atoms: _47  and  _48
REMARK   22  A    between atoms: _51  and  _53
REMARK   23  A    between atoms: _53  and  _54
REMARK   24  A    between atoms: _53  and  _56
REMARK   25  A    between atoms: _56  and  _57
REMARK   26  A    between atoms: _60  and  _62
REMARK   27  A    between atoms: _62  and  _63
REMARK   28  A    between atoms: _62  and  _65
REMARK   29  A    between atoms: _65  and  _66
REMARK   30  A    between atoms: _69  and  _71
REMARK   31  A    between atoms: _71  and  _72
REMARK   32  A    between atoms: _74  and  _76
REMARK   33  A    between atoms: _76  and  _77
REMARK   34  A    between atoms: _76  and  _79
REMARK   35  A    between atoms: _79  and  _80
REMARK   36  A    between atoms: _82  and  _84
REMARK   37  A    between atoms: _84  and  _85
REMARK   38  A    between atoms: _88  and  _90
REMARK   39  A    between atoms: _90  and  _91
REMARK   40  A    between atoms: _90  and  _93
REMARK   41  A    between atoms: _93  and  _94
REMARK   42  A    between atoms: _99  and  _101
REMARK   43  A    between atoms: _101  and  _102
REMARK   44  A    between atoms: _101  and  _104
REMARK   45  A    between atoms: _104  and  _105
REMARK   46  A    between atoms: _115  and  _117
REMARK   47  A    between atoms: _117  and  _118
REMARK   48  A    between atoms: _117  and  _120
REMARK   49  A    between atoms: _123  and  _125
REMARK   50  A    between atoms: _125  and  _126
REMARK   51  A    between atoms: _125  and  _128
REMARK   52  A    between atoms: _128  and  _129
REMARK   53  A    between atoms: _129  and  _130
REMARK   54  A    between atoms: _133  and  _135
REMARK   55  A    between atoms: _135  and  _136
REMARK   56  A    between atoms: _135  and  _138
REMARK   57  A    between atoms: _138  and  _139
REMARK   58  A    between atoms: _139  and  _140
REMARK   59  A    between atoms: _142  and  _144
REMARK   60  A    between atoms: _144  and  _145
REMARK   61  A    between atoms: _144  and  _147
REMARK   62  A    between atoms: _147  and  _148
REMARK   63  A    between atoms: _153  and  _155
REMARK   64  A    between atoms: _155  and  _156
REMARK   65  A    between atoms: _155  and  _158
REMARK   66  A    between atoms: _158  and  _159
REMARK   67  A    between atoms: _164  and  _165
REMARK   68  A    between atoms: _167  and  _169
REMARK   69  A    between atoms: _169  and  _170
REMARK   70  A    between atoms: _169  and  _172
REMARK   71  A    between atoms: _175  and  _177
REMARK   72  A    between atoms: _177  and  _178
REMARK   73  A    between atoms: _177  and  _180
REMARK   74  A    between atoms: _180  and  _181
REMARK   75  A    between atoms: _183  and  _185
REMARK   76  A    between atoms: _185  and  _186
REMARK   77  A    between atoms: _188  and  _190
REMARK   78  A    between atoms: _190  and  _191
REMARK   79  A    between atoms: _190  and  _193
REMARK   80  A    between atoms: _193  and  _194
REMARK   81  A    between atoms: _197  and  _199
REMARK   82  A    between atoms: _199  and  _200
REMARK   83  A    between atoms: _199  and  _202
REMARK   84  A    between atoms: _205  and  _207
REMARK   85  A    between atoms: _207  and  _208
REMARK   86  A    between atoms: _207  and  _210
REMARK   87  A    between atoms: _210  and  _211
REMARK   88  A    between atoms: _217  and  _219
REMARK   89  A    between atoms: _219  and  _220
REMARK   90  A    between atoms: _219  and  _222
REMARK   91  A    between atoms: _222  and  _223
REMARK   92  A    between atoms: _226  and  _228
REMARK   93  A    between atoms: _228  and  _229
REMARK   94  A    between atoms: _228  and  _231
REMARK   95  A    between atoms: _231  and  _232
REMARK   96  A    between atoms: _237  and  _238
REMARK   97  A    between atoms: _240  and  _242
REMARK   98  A    between atoms: _242  and  _243
REMARK   99  A    between atoms: _242  and  _245
REMARK  100  A    between atoms: _245  and  _246
REMARK  101  A    between atoms: _248  and  _250
REMARK  102  A    between atoms: _250  and  _251
REMARK  103  A    between atoms: _250  and  _253
REMARK  104  A    between atoms: _253  and  _254
REMARK  105  A    between atoms: _260  and  _262
REMARK  106  A    between atoms: _262  and  _263
REMARK  107  A    between atoms: _265  and  _267
REMARK  108  A    between atoms: _267  and  _268
REMARK  109  A    between atoms: _267  and  _270
REMARK  110  A    between atoms: _270  and  _271
REMARK  111  A    between atoms: _274  and  _276
REMARK  112  A    between atoms: _276  and  _277
REMARK  113  A    between atoms: _276  and  _279
REMARK  114  A    between atoms: _279  and  _280
REMARK  115  A    between atoms: _283  and  _285
REMARK  116  A    between atoms: _285  and  _286
REMARK  117  A    between atoms: _285  and  _288
REMARK  118  A    between atoms: _288  and  _289
REMARK  119  A    between atoms: _292  and  _294
REMARK  120  A    between atoms: _294  and  _295
REMARK  121  A    between atoms: _297  and  _299
REMARK  122  A    between atoms: _299  and  _300
REMARK  123  A    between atoms: _299  and  _302
REMARK  124  A    between atoms: _302  and  _303
REMARK  125  A    between atoms: _313  and  _315
REMARK  126  A    between atoms: _315  and  _316
REMARK  127  A    between atoms: _315  and  _318
REMARK  128  A    between atoms: _318  and  _319
REMARK  129  A    between atoms: _322  and  _324
REMARK  130  A    between atoms: _324  and  _325
REMARK  131  A    between atoms: _324  and  _327
REMARK  132  A    between atoms: _327  and  _328
REMARK  133  A    between atoms: _331  and  _333
REMARK  134  A    between atoms: _333  and  _334
REMARK  135  A    between atoms: _333  and  _336
REMARK  136  A    between atoms: _336  and  _337
REMARK  137  A    between atoms: _339  and  _341
REMARK  138  A    between atoms: _341  and  _342
REMARK  139  A    between atoms: _341  and  _344
REMARK  140  A    between atoms: _344  and  _345
REMARK  141  A    between atoms: _348  and  _350
REMARK  142  A    between atoms: _350  and  _351
REMARK  143  A    between atoms: _350  and  _353
REMARK  144  A    between atoms: _353  and  _354
REMARK  145  A    between atoms: _357  and  _359
REMARK  146  A    between atoms: _359  and  _360
REMARK  147  A    between atoms: _359  and  _362
REMARK  148  A    between atoms: _362  and  _363
REMARK  149  A    between atoms: _368  and  _369
REMARK  150  A    between atoms: _371  and  _373
REMARK  151  A    between atoms: _373  and  _374
REMARK  152  A    between atoms: _373  and  _376
REMARK  153  A    between atoms: _376  and  _377
REMARK  154  A    between atoms: _387  and  _389
REMARK  155  A    between atoms: _389  and  _390
REMARK  156  A    between atoms: _389  and  _392
REMARK  157  A    between atoms: _392  and  _393
REMARK  158  A    between atoms: _398  and  _400
REMARK  159  A    between atoms: _400  and  _401
REMARK  160  A    between atoms: _400  and  _403
REMARK  161  A    between atoms: _403  and  _404
REMARK  162  A    between atoms: _407  and  _409
REMARK  163  A    between atoms: _409  and  _410
REMARK  164  A    between atoms: _409  and  _412
REMARK  165  A    between atoms: _415  and  _417
REMARK  166  A    between atoms: _417  and  _418
REMARK  167  A    between atoms: _417  and  _420
REMARK  168  A    between atoms: _420  and  _421
REMARK  169  A    between atoms: _424  and  _426
REMARK  170  A    between atoms: _426  and  _427
REMARK  171  A    between atoms: _426  and  _429
REMARK  172  A    between atoms: _429  and  _430
REMARK  173  A    between atoms: _432  and  _434
REMARK  174  A    between atoms: _434  and  _435
REMARK  175  A    between atoms: _437  and  _439
REMARK  176  A    between atoms: _439  and  _440
REMARK  177  A    between atoms: _439  and  _442
REMARK  178  A    between atoms: _442  and  _443
REMARK  179  A    between atoms: _446  and  _448
REMARK  180  A    between atoms: _448  and  _449
REMARK  181  A    between atoms: _448  and  _451
REMARK  182  A    between atoms: _451  and  _452
REMARK  183  A    between atoms: _454  and  _456
REMARK  184  A    between atoms: _456  and  _457
REMARK  185  A    between atoms: _460  and  _462
REMARK  186  A    between atoms: _462  and  _463
REMARK  187  A    between atoms: _462  and  _465
REMARK  188  A    between atoms: _465  and  _466
REMARK  189  A    between atoms: _469  and  _471
REMARK  190  A    between atoms: _471  and  _472
REMARK  191  A    between atoms: _471  and  _474
REMARK  192  A    between atoms: _474  and  _475
REMARK  193  A    between atoms: _478  and  _480
REMARK  194  A    between atoms: _480  and  _481
REMARK  195  A    between atoms: _480  and  _483
REMARK  196  A    between atoms: _487  and  _488
REMARK  197  A    between atoms: _493  and  _495
REMARK  198  A    between atoms: _495  and  _496
REMARK  199  A    between atoms: _495  and  _498
REMARK  200  A    between atoms: _498  and  _499
REMARK  201  A    between atoms: _504  and  _506
REMARK  202  A    between atoms: _506  and  _507
REMARK  203  A    between atoms: _506  and  _509
REMARK  204  A    between atoms: _509  and  _510
REMARK  205  A    between atoms: _513  and  _515
REMARK  206  A    between atoms: _515  and  _516
REMARK  207  A    between atoms: _515  and  _518
REMARK  208  A    between atoms: _518  and  _519
REMARK  209  A    between atoms: _522  and  _524
REMARK  210  A    between atoms: _524  and  _525
REMARK  211  A    between atoms: _524  and  _527
REMARK  212  A    between atoms: _527  and  _528
REMARK  213  A    between atoms: _531  and  _533
REMARK  214  A    between atoms: _533  and  _534
REMARK  215  A    between atoms: _533  and  _536
REMARK  216  A    between atoms: _536  and  _537
REMARK  217  A    between atoms: _543  and  _545
REMARK  218  A    between atoms: _545  and  _546
REMARK  219  A    between atoms: _545  and  _548
REMARK  220  A    between atoms: _548  and  _549
REMARK  221  A    between atoms: _552  and  _554
REMARK  222  A    between atoms: _554  and  _555
REMARK  223  A    between atoms: _554  and  _557
REMARK  224  A    between atoms: _557  and  _558
REMARK  225  A    between atoms: _564  and  _566
REMARK  226  A    between atoms: _566  and  _567
REMARK  227  A    between atoms: _566  and  _569
REMARK  228  A    between atoms: _569  and  _570
REMARK  229  A    between atoms: _573  and  _575
REMARK  230  A    between atoms: _575  and  _576
REMARK  231  A    between atoms: _575  and  _578
REMARK  232  A    between atoms: _578  and  _579
REMARK  233  A    between atoms: _582  and  _584
REMARK  234  A    between atoms: _584  and  _585
REMARK  235  A    between atoms: _587  and  _589
REMARK  236  A    between atoms: _589  and  _590
REMARK  237  A    between atoms: _589  and  _592
REMARK  238  A    between atoms: _592  and  _593
REMARK                            x       y       z     vdW  Elec       q    Type
REMARK                         _______ _______ _______ _____ _____    ______ ____
ROOT
ATOM      1  O   HOH     1      37.797  40.684  16.555  0.00  0.00    +0.000 OA
ENDROOT
TORSDOF 0
REMARK  Name = ../refined-set-2016/1lee/1lee_pocket.pdb
REMARK  238 active torsions:
REMARK  status: ('A' for Active; 'I' for Inactive)
REMARK    1  A    between atoms: _1  and  _3
REMARK    2  A    between atoms: _3  and  _4
REMARK    3  A    between atoms: _3  and  _6
REMARK    4  A    between atoms: _6  and  _7
REMARK    5  A    between atoms: _10  and  _12
REMARK    6  A    between atoms: _12  and  _13
REMARK    7  A    between atoms: _12  and  _15
REMARK    8  A    between atoms: _16  and  _17
REMARK    9  A    between atoms: _19  and  _21
REMARK   10  A    between atoms: _21  and  _22
REMARK   11  A    between atoms: _21  and  _24
REMARK   12  A    between atoms: _24  and  _25
REMARK   13  A    between atoms: _30  and  _31
REMARK   14  A    between atoms: _33  and  _35
REMARK   15  A    between atoms: _35  and  _36
REMARK   16  A    between atoms: _35  and  _38
REMARK   17  A    between atoms: _38  and  _39
REMARK   18  A    between atoms: _42  and  _44
REMARK   19  A    between atoms: _44  and  _45
REMARK   20  A    between atoms: _44  and  _47
REMARK   21  A    between atoms: _47  and  _48
REMARK   22  A    between atoms: _51  and  _53
REMARK   23  A    between atoms: _53  and  _54
REMARK   24  A    between atoms: _53  and  _56
REMARK   25  A    between atoms: _56  and  _57
REMARK   26  A    between atoms: _60  and  _62
REMARK   27  A    between atoms: _62  and  _63
REMARK   28  A    between atoms: _62  and  _65
REMARK   29  A    between atoms: _65  and  _66
REMARK   30  A    between atoms: _69  and  _71
REMARK   31  A    between atoms: _71  and  _72
REMARK   32  A    between atoms: _74  and  _76
REMARK   33  A    between atoms: _76  and  _77
REMARK   34  A    between atoms: _76  and  _79
REMARK   35  A    between atoms: _79  and  _80
REMARK   36  A    between atoms: _82  and  _84
REMARK   37  A    between atoms: _84  and  _85
REMARK   38  A    between atoms: _88  and  _90
REMARK   39  A    between atoms: _90  and  _91
REMARK   40  A    between atoms: _90  and  _93
REMARK   41  A    between atoms: _93  and  _94
REMARK   42  A    between atoms: _99  and  _101
REMARK   43  A    between atoms: _101  and  _102
REMARK   44  A    between atoms: _101  and  _104
REMARK   45  A    between atoms: _104  and  _105
REMARK   46  A    between atoms: _115  and  _117
REMARK   47  A    between atoms: _117  and  _118
REMARK   48  A    between atoms: _117  and  _120
REMARK   49  A    between atoms: _123  and  _125
REMARK   50  A    between atoms: _125  and  _126
REMARK   51  A    between atoms: _125  and  _128
REMARK   52  A    between atoms: _128  and  _129
REMARK   53  A    between atoms: _129  and  _130
REMARK   54  A    between atoms: _133  and  _135
REMARK   55  A    between atoms: _135  and  _136
REMARK   56  A    between atoms: _135  and  _138
REMARK   57  A    between atoms: _138  and  _139
REMARK   58  A    between atoms: _139  and  _140
REMARK   59  A    between atoms: _142  and  _144
REMARK   60  A    between atoms: _144  and  _145
REMARK   61  A    between atoms: _144  and  _147
REMARK   62  A    between atoms: _147  and  _148
REMARK   63  A    between atoms: _153  and  _155
REMARK   64  A    between atoms: _155  and  _156
REMARK   65  A    between atoms: _155  and  _158
REMARK   66  A    between atoms: _158  and  _159
REMARK   67  A    between atoms: _164  and  _165
REMARK   68  A    between atoms: _167  and  _169
REMARK   69  A    between atoms: _169  and  _170
REMARK   70  A    between atoms: _169  and  _172
REMARK   71  A    between atoms: _175  and  _177
REMARK   72  A    between atoms: _177  and  _178
REMARK   73  A    between atoms: _177  and  _180
REMARK   74  A    between atoms: _180  and  _181
REMARK   75  A    between atoms: _183  and  _185
REMARK   76  A    between atoms: _185  and  _186
REMARK   77  A    between atoms: _188  and  _190
REMARK   78  A    between atoms: _190  and  _191
REMARK   79  A    between atoms: _190  and  _193
REMARK   80  A    between atoms: _193  and  _194
REMARK   81  A    between atoms: _197  and  _199
REMARK   82  A    between atoms: _199  and  _200
REMARK   83  A    between atoms: _199  and  _202
REMARK   84  A    between atoms: _205  and  _207
REMARK   85  A    between atoms: _207  and  _208
REMARK   86  A    between atoms: _207  and  _210
REMARK   87  A    between atoms: _210  and  _211
REMARK   88  A    between atoms: _217  and  _219
REMARK   89  A    between atoms: _219  and  _220
REMARK   90  A    between atoms: _219  and  _222
REMARK   91  A    between atoms: _222  and  _223
REMARK   92  A    between atoms: _226  and  _228
REMARK   93  A    between atoms: _228  and  _229
REMARK   94  A    between atoms: _228  and  _231
REMARK   95  A    between atoms: _231  and  _232
REMARK   96  A    between atoms: _237  and  _238
REMARK   97  A    between atoms: _240  and  _242
REMARK   98  A    between atoms: _242  and  _243
REMARK   99  A    between atoms: _242  and  _245
REMARK  100  A    between atoms: _245  and  _246
REMARK  101  A    between atoms: _248  and  _250
REMARK  102  A    between atoms: _250  and  _251
REMARK  103  A    between atoms: _250  and  _253
REMARK  104  A    between atoms: _253  and  _254
REMARK  105  A    between atoms: _260  and  _262
REMARK  106  A    between atoms: _262  and  _263
REMARK  107  A    between atoms: _265  and  _267
REMARK  108  A    between atoms: _267  and  _268
REMARK  109  A    between atoms: _267  and  _270
REMARK  110  A    between atoms: _270  and  _271
REMARK  111  A    between atoms: _274  and  _276
REMARK  112  A    between atoms: _276  and  _277
REMARK  113  A    between atoms: _276  and  _279
REMARK  114  A    between atoms: _279  and  _280
REMARK  115  A    between atoms: _283  and  _285
REMARK  116  A    between atoms: _285  and  _286
REMARK  117  A    between atoms: _285  and  _288
REMARK  118  A    between atoms: _288  and  _289
REMARK  119  A    between atoms: _292  and  _294
REMARK  120  A    between atoms: _294  and  _295
REMARK  121  A    between atoms: _297  and  _299
REMARK  122  A    between atoms: _299  and  _300
REMARK  123  A    between atoms: _299  and  _302
REMARK  124  A    between atoms: _302  and  _303
REMARK  125  A    between atoms: _313  and  _315
REMARK  126  A    between atoms: _315  and  _316
REMARK  127  A    between atoms: _315  and  _318
REMARK  128  A    between atoms: _318  and  _319
REMARK  129  A    between atoms: _322  and  _324
REMARK  130  A    between atoms: _324  and  _325
REMARK  131  A    between atoms: _324  and  _327
REMARK  132  A    between atoms: _327  and  _328
REMARK  133  A    between atoms: _331  and  _333
REMARK  134  A    between atoms: _333  and  _334
REMARK  135  A    between atoms: _333  and  _336
REMARK  136  A    between atoms: _336  and  _337
REMARK  137  A    between atoms: _339  and  _341
REMARK  138  A    between atoms: _341  and  _342
REMARK  139  A    between atoms: _341  and  _344
REMARK  140  A    between atoms: _344  and  _345
REMARK  141  A    between atoms: _348  and  _350
REMARK  142  A    between atoms: _350  and  _351
REMARK  143  A    between atoms: _350  and  _353
REMARK  144  A    between atoms: _353  and  _354
REMARK  145  A    between atoms: _357  and  _359
REMARK  146  A    between atoms: _359  and  _360
REMARK  147  A    between atoms: _359  and  _362
REMARK  148  A    between atoms: _362  and  _363
REMARK  149  A    between atoms: _368  and  _369
REMARK  150  A    between atoms: _371  and  _373
REMARK  151  A    between atoms: _373  and  _374
REMARK  152  A    between atoms: _373  and  _376
REMARK  153  A    between atoms: _376  and  _377
REMARK  154  A    between atoms: _387  and  _389
REMARK  155  A    between atoms: _389  and  _390
REMARK  156  A    between atoms: _389  and  _392
REMARK  157  A    between atoms: _392  and  _393
REMARK  158  A    between atoms: _398  and  _400
REMARK  159  A    between atoms: _400  and  _401
REMARK  160  A    between atoms: _400  and  _403
REMARK  161  A    between atoms: _403  and  _404
REMARK  162  A    between atoms: _407  and  _409
REMARK  163  A    between atoms: _409  and  _410
REMARK  164  A    between atoms: _409  and  _412
REMARK  165  A    between atoms: _415  and  _417
REMARK  166  A    between atoms: _417  and  _418
REMARK  167  A    between atoms: _417  and  _420
REMARK  168  A    between atoms: _420  and  _421
REMARK  169  A    between atoms: _424  and  _426
REMARK  170  A    between atoms: _426  and  _427
REMARK  171  A    between atoms: _426  and  _429
REMARK  172  A    between atoms: _429  and  _430
REMARK  173  A    between atoms: _432  and  _434
REMARK  174  A    between atoms: _434  and  _435
REMARK  175  A    between atoms: _437  and  _439
REMARK  176  A    between atoms: _439  and  _440
REMARK  177  A    between atoms: _439  and  _442
REMARK  178  A    between atoms: _442  and  _443
REMARK  179  A    between atoms: _446  and  _448
REMARK  180  A    between atoms: _448  and  _449
REMARK  181  A    between atoms: _448  and  _451
REMARK  182  A    between atoms: _451  and  _452
REMARK  183  A    between atoms: _454  and  _456
REMARK  184  A    between atoms: _456  and  _457
REMARK  185  A    between atoms: _460  and  _462
REMARK  186  A    between atoms: _462  and  _463
REMARK  187  A    between atoms: _462  and  _465
REMARK  188  A    between atoms: _465  and  _466
REMARK  189  A    between atoms: _469  and  _471
REMARK  190  A    between atoms: _471  and  _472
REMARK  191  A    between atoms: _471  and  _474
REMARK  192  A    between atoms: _474  and  _475
REMARK  193  A    between atoms: _478  and  _480
REMARK  194  A    between atoms: _480  and  _481
REMARK  195  A    between atoms: _480  and  _483
REMARK  196  A    between atoms: _487  and  _488
REMARK  197  A    between atoms: _493  and  _495
REMARK  198  A    between atoms: _495  and  _496
REMARK  199  A    between atoms: _495  and  _498
REMARK  200  A    between atoms: _498  and  _499
REMARK  201  A    between atoms: _504  and  _506
REMARK  202  A    between atoms: _506  and  _507
REMARK  203  A    between atoms: _506  and  _509
REMARK  204  A    between atoms: _509  and  _510
REMARK  205  A    between atoms: _513  and  _515
REMARK  206  A    between atoms: _515  and  _516
REMARK  207  A    between atoms: _515  and  _518
REMARK  208  A    between atoms: _518  and  _519
REMARK  209  A    between atoms: _522  and  _524
REMARK  210  A    between atoms: _524  and  _525
REMARK  211  A    between atoms: _524  and  _527
REMARK  212  A    between atoms: _527  and  _528
REMARK  213  A    between atoms: _531  and  _533
REMARK  214  A    between atoms: _533  and  _534
REMARK  215  A    between atoms: _533  and  _536
REMARK  216  A    between atoms: _536  and  _537
REMARK  217  A    between atoms: _543  and  _545
REMARK  218  A    between atoms: _545  and  _546
REMARK  219  A    between atoms: _545  and  _548
REMARK  220  A    between atoms: _548  and  _549
REMARK  221  A    between atoms: _552  and  _554
REMARK  222  A    between atoms: _554  and  _555
REMARK  223  A    between atoms: _554  and  _557
REMARK  224  A    between atoms: _557  and  _558
REMARK  225  A    between atoms: _564  and  _566
REMARK  226  A    between atoms: _566  and  _567
REMARK  227  A    between atoms: _566  and  _569
REMARK  228  A    between atoms: _569  and  _570
REMARK  229  A    between atoms: _573  and  _575
REMARK  230  A    between atoms: _575  and  _576
REMARK  231  A    between atoms: _575  and  _578
REMARK  232  A    between atoms: _578  and  _579
REMARK  233  A    between atoms: _582  and  _584
REMARK  234  A    between atoms: _584  and  _585
REMARK  235  A    between atoms: _587  and  _589
REMARK  236  A    between atoms: _589  and  _590
REMARK  237  A    between atoms: _589  and  _592
REMARK  238  A    between atoms: _592  and  _593
REMARK                            x       y       z     vdW  Elec       q    Type
REMARK                         _______ _______ _______ _____ _____    ______ ____
ROOT
ATOM      1  O   HOH     1      31.535  42.840   9.927  0.00  0.00    +0.000 OA
ENDROOT
TORSDOF 0
REMARK  Name = ../refined-set-2016/1lee/1lee_pocket.pdb
REMARK  238 active torsions:
REMARK  status: ('A' for Active; 'I' for Inactive)
REMARK    1  A    between atoms: _1  and  _3
REMARK    2  A    between atoms: _3  and  _4
REMARK    3  A    between atoms: _3  and  _6
REMARK    4  A    between atoms: _6  and  _7
REMARK    5  A    between atoms: _10  and  _12
REMARK    6  A    between atoms: _12  and  _13
REMARK    7  A    between atoms: _12  and  _15
REMARK    8  A    between atoms: _16  and  _17
REMARK    9  A    between atoms: _19  and  _21
REMARK   10  A    between atoms: _21  and  _22
REMARK   11  A    between atoms: _21  and  _24
REMARK   12  A    between atoms: _24  and  _25
REMARK   13  A    between atoms: _30  and  _31
REMARK   14  A    between atoms: _33  and  _35
REMARK   15  A    between atoms: _35  and  _36
REMARK   16  A    between atoms: _35  and  _38
REMARK   17  A    between atoms: _38  and  _39
REMARK   18  A    between atoms: _42  and  _44
REMARK   19  A    between atoms: _44  and  _45
REMARK   20  A    between atoms: _44  and  _47
REMARK   21  A    between atoms: _47  and  _48
REMARK   22  A    between atoms: _51  and  _53
REMARK   23  A    between atoms: _53  and  _54
REMARK   24  A    between atoms: _53  and  _56
REMARK   25  A    between atoms: _56  and  _57
REMARK   26  A    between atoms: _60  and  _62
REMARK   27  A    between atoms: _62  and  _63
REMARK   28  A    between atoms: _62  and  _65
REMARK   29  A    between atoms: _65  and  _66
REMARK   30  A    between atoms: _69  and  _71
REMARK   31  A    between atoms: _71  and  _72
REMARK   32  A    between atoms: _74  and  _76
REMARK   33  A    between atoms: _76  and  _77
REMARK   34  A    between atoms: _76  and  _79
REMARK   35  A    between atoms: _79  and  _80
REMARK   36  A    between atoms: _82  and  _84
REMARK   37  A    between atoms: _84  and  _85
REMARK   38  A    between atoms: _88  and  _90
REMARK   39  A    between atoms: _90  and  _91
REMARK   40  A    between atoms: _90  and  _93
REMARK   41  A    between atoms: _93  and  _94
REMARK   42  A    between atoms: _99  and  _101
REMARK   43  A    between atoms: _101  and  _102
REMARK   44  A    between atoms: _101  and  _104
REMARK   45  A    between atoms: _104  and  _105
REMARK   46  A    between atoms: _115  and  _117
REMARK   47  A    between atoms: _117  and  _118
REMARK   48  A    between atoms: _117  and  _120
REMARK   49  A    between atoms: _123  and  _125
REMARK   50  A    between atoms: _125  and  _126
REMARK   51  A    between atoms: _125  and  _128
REMARK   52  A    between atoms: _128  and  _129
REMARK   53  A    between atoms: _129  and  _130
REMARK   54  A    between atoms: _133  and  _135
REMARK   55  A    between atoms: _135  and  _136
REMARK   56  A    between atoms: _135  and  _138
REMARK   57  A    between atoms: _138  and  _139
REMARK   58  A    between atoms: _139  and  _140
REMARK   59  A    between atoms: _142  and  _144
REMARK   60  A    between atoms: _144  and  _145
REMARK   61  A    between atoms: _144  and  _147
REMARK   62  A    between atoms: _147  and  _148
REMARK   63  A    between atoms: _153  and  _155
REMARK   64  A    between atoms: _155  and  _156
REMARK   65  A    between atoms: _155  and  _158
REMARK   66  A    between atoms: _158  and  _159
REMARK   67  A    between atoms: _164  and  _165
REMARK   68  A    between atoms: _167  and  _169
REMARK   69  A    between atoms: _169  and  _170
REMARK   70  A    between atoms: _169  and  _172
REMARK   71  A    between atoms: _175  and  _177
REMARK   72  A    between atoms: _177  and  _178
REMARK   73  A    between atoms: _177  and  _180
REMARK   74  A    between atoms: _180  and  _181
REMARK   75  A    between atoms: _183  and  _185
REMARK   76  A    between atoms: _185  and  _186
REMARK   77  A    between atoms: _188  and  _190
REMARK   78  A    between atoms: _190  and  _191
REMARK   79  A    between atoms: _190  and  _193
REMARK   80  A    between atoms: _193  and  _194
REMARK   81  A    between atoms: _197  and  _199
REMARK   82  A    between atoms: _199  and  _200
REMARK   83  A    between atoms: _199  and  _202
REMARK   84  A    between atoms: _205  and  _207
REMARK   85  A    between atoms: _207  and  _208
REMARK   86  A    between atoms: _207  and  _210
REMARK   87  A    between atoms: _210  and  _211
REMARK   88  A    between atoms: _217  and  _219
REMARK   89  A    between atoms: _219  and  _220
REMARK   90  A    between atoms: _219  and  _222
REMARK   91  A    between atoms: _222  and  _223
REMARK   92  A    between atoms: _226  and  _228
REMARK   93  A    between atoms: _228  and  _229
REMARK   94  A    between atoms: _228  and  _231
REMARK   95  A    between atoms: _231  and  _232
REMARK   96  A    between atoms: _237  and  _238
REMARK   97  A    between atoms: _240  and  _242
REMARK   98  A    between atoms: _242  and  _243
REMARK   99  A    between atoms: _242  and  _245
REMARK  100  A    between atoms: _245  and  _246
REMARK  101  A    between atoms: _248  and  _250
REMARK  102  A    between atoms: _250  and  _251
REMARK  103  A    between atoms: _250  and  _253
REMARK  104  A    between atoms: _253  and  _254
REMARK  105  A    between atoms: _260  and  _262
REMARK  106  A    between atoms: _262  and  _263
REMARK  107  A    between atoms: _265  and  _267
REMARK  108  A    between atoms: _267  and  _268
REMARK  109  A    between atoms: _267  and  _270
REMARK  110  A    between atoms: _270  and  _271
REMARK  111  A    between atoms: _274  and  _276
REMARK  112  A    between atoms: _276  and  _277
REMARK  113  A    between atoms: _276  and  _279
REMARK  114  A    between atoms: _279  and  _280
REMARK  115  A    between atoms: _283  and  _285
REMARK  116  A    between atoms: _285  and  _286
REMARK  117  A    between atoms: _285  and  _288
REMARK  118  A    between atoms: _288  and  _289
REMARK  119  A    between atoms: _292  and  _294
REMARK  120  A    between atoms: _294  and  _295
REMARK  121  A    between atoms: _297  and  _299
REMARK  122  A    between atoms: _299  and  _300
REMARK  123  A    between atoms: _299  and  _302
REMARK  124  A    between atoms: _302  and  _303
REMARK  125  A    between atoms: _313  and  _315
REMARK  126  A    between atoms: _315  and  _316
REMARK  127  A    between atoms: _315  and  _318
REMARK  128  A    between atoms: _318  and  _319
REMARK  129  A    between atoms: _322  and  _324
REMARK  130  A    between atoms: _324  and  _325
REMARK  131  A    between atoms: _324  and  _327
REMARK  132  A    between atoms: _327  and  _328
REMARK  133  A    between atoms: _331  and  _333
REMARK  134  A    between atoms: _333  and  _334
REMARK  135  A    between atoms: _333  and  _336
REMARK  136  A    between atoms: _336  and  _337
REMARK  137  A    between atoms: _339  and  _341
REMARK  138  A    between atoms: _341  and  _342
REMARK  139  A    between atoms: _341  and  _344
REMARK  140  A    between atoms: _344  and  _345
REMARK  141  A    between atoms: _348  and  _350
REMARK  142  A    between atoms: _350  and  _351
REMARK  143  A    between atoms: _350  and  _353
REMARK  144  A    between atoms: _353  and  _354
REMARK  145  A    between atoms: _357  and  _359
REMARK  146  A    between atoms: _359  and  _360
REMARK  147  A    between atoms: _359  and  _362
REMARK  148  A    between atoms: _362  and  _363
REMARK  149  A    between atoms: _368  and  _369
REMARK  150  A    between atoms: _371  and  _373
REMARK  151  A    between atoms: _373  and  _374
REMARK  152  A    between atoms: _373  and  _376
REMARK  153  A    between atoms: _376  and  _377
REMARK  154  A    between atoms: _387  and  _389
REMARK  155  A    between atoms: _389  and  _390
REMARK  156  A    between atoms: _389  and  _392
REMARK  157  A    between atoms: _392  and  _393
REMARK  158  A    between atoms: _398  and  _400
REMARK  159  A    between atoms: _400  and  _401
REMARK  160  A    between atoms: _400  and  _403
REMARK  161  A    between atoms: _403  and  _404
REMARK  162  A    between atoms: _407  and  _409
REMARK  163  A    between atoms: _409  and  _410
REMARK  164  A    between atoms: _409  and  _412
REMARK  165  A    between atoms: _415  and  _417
REMARK  166  A    between atoms: _417  and  _418
REMARK  167  A    between atoms: _417  and  _420
REMARK  168  A    between atoms: _420  and  _421
REMARK  169  A    between atoms: _424  and  _426
REMARK  170  A    between atoms: _426  and  _427
REMARK  171  A    between atoms: _426  and  _429
REMARK  172  A    between atoms: _429  and  _430
REMARK  173  A    between atoms: _432  and  _434
REMARK  174  A    between atoms: _434  and  _435
REMARK  175  A    between atoms: _437  and  _439
REMARK  176  A    between atoms: _439  and  _440
REMARK  177  A    between atoms: _439  and  _442
REMARK  178  A    between atoms: _442  and  _443
REMARK  179  A    between atoms: _446  and  _448
REMARK  180  A    between atoms: _448  and  _449
REMARK  181  A    between atoms: _448  and  _451
REMARK  182  A    between atoms: _451  and  _452
REMARK  183  A    between atoms: _454  and  _456
REMARK  184  A    between atoms: _456  and  _457
REMARK  185  A    between atoms: _460  and  _462
REMARK  186  A    between atoms: _462  and  _463
REMARK  187  A    between atoms: _462  and  _465
REMARK  188  A    between atoms: _465  and  _466
REMARK  189  A    between atoms: _469  and  _471
REMARK  190  A    between atoms: _471  and  _472
REMARK  191  A    between atoms: _471  and  _474
REMARK  192  A    between atoms: _474  and  _475
REMARK  193  A    between atoms: _478  and  _480
REMARK  194  A    between atoms: _480  and  _481
REMARK  195  A    between atoms: _480  and  _483
REMARK  196  A    between atoms: _487  and  _488
REMARK  197  A    between atoms: _493  and  _495
REMARK  198  A    between atoms: _495  and  _496
REMARK  199  A    between atoms: _495  and  _498
REMARK  200  A    between atoms: _498  and  _499
REMARK  201  A    between atoms: _504  and  _506
REMARK  202  A    between atoms: _506  and  _507
REMARK  203  A    between atoms: _506  and  _509
REMARK  204  A    between atoms: _509  and  _510
REMARK  205  A    between atoms: _513  and  _515
REMARK  206  A    between atoms: _515  and  _516
REMARK  207  A    between atoms: _515  and  _518
REMARK  208  A    between atoms: _518  and  _519
REMARK  209  A    between atoms: _522  and  _524
REMARK  210  A    between atoms: _524  and  _525
REMARK  211  A    between atoms: _524  and  _527
REMARK  212  A    between atoms: _527  and  _528
REMARK  213  A    between atoms: _531  and  _533
REMARK  214  A    between atoms: _533  and  _534
REMARK  215  A    between atoms: _533  and  _536
REMARK  216  A    between atoms: _536  and  _537
REMARK  217  A    between atoms: _543  and  _545
REMARK  218  A    between atoms: _545  and  _546
REMARK  219  A    between atoms: _545  and  _548
REMARK  220  A    between atoms: _548  and  _549
REMARK  221  A    between atoms: _552  and  _554
REMARK  222  A    between atoms: _554  and  _555
REMARK  223  A    between atoms: _554  and  _557
REMARK  224  A    between atoms: _557  and  _558
REMARK  225  A    between atoms: _564  and  _566
REMARK  226  A    between atoms: _566  and  _567
REMARK  227  A    between atoms: _566  and  _569
REMARK  228  A    between atoms: _569  and  _570
REMARK  229  A    between atoms: _573  and  _575
REMARK  230  A    between atoms: _575  and  _576
REMARK  231  A    between atoms: _575  and  _578
REMARK  232  A    between atoms: _578  and  _579
REMARK  233  A    between atoms: _582  and  _584
REMARK  234  A    between atoms: _584  and  _585
REMARK  235  A    between atoms: _587  and  _589
REMARK  236  A    between atoms: _589  and  _590
REMARK  237  A    between atoms: _589  and  _592
REMARK  238  A    between atoms: _592  and  _593
REMARK                            x       y       z     vdW  Elec       q    Type
REMARK                         _______ _______ _______ _____ _____    ______ ____
ROOT
ATOM      1  O   HOH     1      29.533  31.659   3.898  0.00  0.00    +0.000 OA
ENDROOT
TORSDOF 0
REMARK  Name = ../refined-set-2016/1lee/1lee_pocket.pdb
REMARK  238 active torsions:
REMARK  status: ('A' for Active; 'I' for Inactive)
REMARK    1  A    between atoms: _1  and  _3
REMARK    2  A    between atoms: _3  and  _4
REMARK    3  A    between atoms: _3  and  _6
REMARK    4  A    between atoms: _6  and  _7
REMARK    5  A    between atoms: _10  and  _12
REMARK    6  A    between atoms: _12  and  _13
REMARK    7  A    between atoms: _12  and  _15
REMARK    8  A    between atoms: _16  and  _17
REMARK    9  A    between atoms: _19  and  _21
REMARK   10  A    between atoms: _21  and  _22
REMARK   11  A    between atoms: _21  and  _24
REMARK   12  A    between atoms: _24  and  _25
REMARK   13  A    between atoms: _30  and  _31
REMARK   14  A    between atoms: _33  and  _35
REMARK   15  A    between atoms: _35  and  _36
REMARK   16  A    between atoms: _35  and  _38
REMARK   17  A    between atoms: _38  and  _39
REMARK   18  A    between atoms: _42  and  _44
REMARK   19  A    between atoms: _44  and  _45
REMARK   20  A    between atoms: _44  and  _47
REMARK   21  A    between atoms: _47  and  _48
REMARK   22  A    between atoms: _51  and  _53
REMARK   23  A    between atoms: _53  and  _54
REMARK   24  A    between atoms: _53  and  _56
REMARK   25  A    between atoms: _56  and  _57
REMARK   26  A    between atoms: _60  and  _62
REMARK   27  A    between atoms: _62  and  _63
REMARK   28  A    between atoms: _62  and  _65
REMARK   29  A    between atoms: _65  and  _66
REMARK   30  A    between atoms: _69  and  _71
REMARK   31  A    between atoms: _71  and  _72
REMARK   32  A    between atoms: _74  and  _76
REMARK   33  A    between atoms: _76  and  _77
REMARK   34  A    between atoms: _76  and  _79
REMARK   35  A    between atoms: _79  and  _80
REMARK   36  A    between atoms: _82  and  _84
REMARK   37  A    between atoms: _84  and  _85
REMARK   38  A    between atoms: _88  and  _90
REMARK   39  A    between atoms: _90  and  _91
REMARK   40  A    between atoms: _90  and  _93
REMARK   41  A    between atoms: _93  and  _94
REMARK   42  A    between atoms: _99  and  _101
REMARK   43  A    between atoms: _101  and  _102
REMARK   44  A    between atoms: _101  and  _104
REMARK   45  A    between atoms: _104  and  _105
REMARK   46  A    between atoms: _115  and  _117
REMARK   47  A    between atoms: _117  and  _118
REMARK   48  A    between atoms: _117  and  _120
REMARK   49  A    between atoms: _123  and  _125
REMARK   50  A    between atoms: _125  and  _126
REMARK   51  A    between atoms: _125  and  _128
REMARK   52  A    between atoms: _128  and  _129
REMARK   53  A    between atoms: _129  and  _130
REMARK   54  A    between atoms: _133  and  _135
REMARK   55  A    between atoms: _135  and  _136
REMARK   56  A    between atoms: _135  and  _138
REMARK   57  A    between atoms: _138  and  _139
REMARK   58  A    between atoms: _139  and  _140
REMARK   59  A    between atoms: _142  and  _144
REMARK   60  A    between atoms: _144  and  _145
REMARK   61  A    between atoms: _144  and  _147
REMARK   62  A    between atoms: _147  and  _148
REMARK   63  A    between atoms: _153  and  _155
REMARK   64  A    between atoms: _155  and  _156
REMARK   65  A    between atoms: _155  and  _158
REMARK   66  A    between atoms: _158  and  _159
REMARK   67  A    between atoms: _164  and  _165
REMARK   68  A    between atoms: _167  and  _169
REMARK   69  A    between atoms: _169  and  _170
REMARK   70  A    between atoms: _169  and  _172
REMARK   71  A    between atoms: _175  and  _177
REMARK   72  A    between atoms: _177  and  _178
REMARK   73  A    between atoms: _177  and  _180
REMARK   74  A    between atoms: _180  and  _181
REMARK   75  A    between atoms: _183  and  _185
REMARK   76  A    between atoms: _185  and  _186
REMARK   77  A    between atoms: _188  and  _190
REMARK   78  A    between atoms: _190  and  _191
REMARK   79  A    between atoms: _190  and  _193
REMARK   80  A    between atoms: _193  and  _194
REMARK   81  A    between atoms: _197  and  _199
REMARK   82  A    between atoms: _199  and  _200
REMARK   83  A    between atoms: _199  and  _202
REMARK   84  A    between atoms: _205  and  _207
REMARK   85  A    between atoms: _207  and  _208
REMARK   86  A    between atoms: _207  and  _210
REMARK   87  A    between atoms: _210  and  _211
REMARK   88  A    between atoms: _217  and  _219
REMARK   89  A    between atoms: _219  and  _220
REMARK   90  A    between atoms: _219  and  _222
REMARK   91  A    between atoms: _222  and  _223
REMARK   92  A    between atoms: _226  and  _228
REMARK   93  A    between atoms: _228  and  _229
REMARK   94  A    between atoms: _228  and  _231
REMARK   95  A    between atoms: _231  and  _232
REMARK   96  A    between atoms: _237  and  _238
REMARK   97  A    between atoms: _240  and  _242
REMARK   98  A    between atoms: _242  and  _243
REMARK   99  A    between atoms: _242  and  _245
REMARK  100  A    between atoms: _245  and  _246
REMARK  101  A    between atoms: _248  and  _250
REMARK  102  A    between atoms: _250  and  _251
REMARK  103  A    between atoms: _250  and  _253
REMARK  104  A    between atoms: _253  and  _254
REMARK  105  A    between atoms: _260  and  _262
REMARK  106  A    between atoms: _262  and  _263
REMARK  107  A    between atoms: _265  and  _267
REMARK  108  A    between atoms: _267  and  _268
REMARK  109  A    between atoms: _267  and  _270
REMARK  110  A    between atoms: _270  and  _271
REMARK  111  A    between atoms: _274  and  _276
REMARK  112  A    between atoms: _276  and  _277
REMARK  113  A    between atoms: _276  and  _279
REMARK  114  A    between atoms: _279  and  _280
REMARK  115  A    between atoms: _283  and  _285
REMARK  116  A    between atoms: _285  and  _286
REMARK  117  A    between atoms: _285  and  _288
REMARK  118  A    between atoms: _288  and  _289
REMARK  119  A    between atoms: _292  and  _294
REMARK  120  A    between atoms: _294  and  _295
REMARK  121  A    between atoms: _297  and  _299
REMARK  122  A    between atoms: _299  and  _300
REMARK  123  A    between atoms: _299  and  _302
REMARK  124  A    between atoms: _302  and  _303
REMARK  125  A    between atoms: _313  and  _315
REMARK  126  A    between atoms: _315  and  _316
REMARK  127  A    between atoms: _315  and  _318
REMARK  128  A    between atoms: _318  and  _319
REMARK  129  A    between atoms: _322  and  _324
REMARK  130  A    between atoms: _324  and  _325
REMARK  131  A    between atoms: _324  and  _327
REMARK  132  A    between atoms: _327  and  _328
REMARK  133  A    between atoms: _331  and  _333
REMARK  134  A    between atoms: _333  and  _334
REMARK  135  A    between atoms: _333  and  _336
REMARK  136  A    between atoms: _336  and  _337
REMARK  137  A    between atoms: _339  and  _341
REMARK  138  A    between atoms: _341  and  _342
REMARK  139  A    between atoms: _341  and  _344
REMARK  140  A    between atoms: _344  and  _345
REMARK  141  A    between atoms: _348  and  _350
REMARK  142  A    between atoms: _350  and  _351
REMARK  143  A    between atoms: _350  and  _353
REMARK  144  A    between atoms: _353  and  _354
REMARK  145  A    between atoms: _357  and  _359
REMARK  146  A    between atoms: _359  and  _360
REMARK  147  A    between atoms: _359  and  _362
REMARK  148  A    between atoms: _362  and  _363
REMARK  149  A    between atoms: _368  and  _369
REMARK  150  A    between atoms: _371  and  _373
REMARK  151  A    between atoms: _373  and  _374
REMARK  152  A    between atoms: _373  and  _376
REMARK  153  A    between atoms: _376  and  _377
REMARK  154  A    between atoms: _387  and  _389
REMARK  155  A    between atoms: _389  and  _390
REMARK  156  A    between atoms: _389  and  _392
REMARK  157  A    between atoms: _392  and  _393
REMARK  158  A    between atoms: _398  and  _400
REMARK  159  A    between atoms: _400  and  _401
REMARK  160  A    between atoms: _400  and  _403
REMARK  161  A    between atoms: _403  and  _404
REMARK  162  A    between atoms: _407  and  _409
REMARK  163  A    between atoms: _409  and  _410
REMARK  164  A    between atoms: _409  and  _412
REMARK  165  A    between atoms: _415  and  _417
REMARK  166  A    between atoms: _417  and  _418
REMARK  167  A    between atoms: _417  and  _420
REMARK  168  A    between atoms: _420  and  _421
REMARK  169  A    between atoms: _424  and  _426
REMARK  170  A    between atoms: _426  and  _427
REMARK  171  A    between atoms: _426  and  _429
REMARK  172  A    between atoms: _429  and  _430
REMARK  173  A    between atoms: _432  and  _434
REMARK  174  A    between atoms: _434  and  _435
REMARK  175  A    between atoms: _437  and  _439
REMARK  176  A    between atoms: _439  and  _440
REMARK  177  A    between atoms: _439  and  _442
REMARK  178  A    between atoms: _442  and  _443
REMARK  179  A    between atoms: _446  and  _448
REMARK  180  A    between atoms: _448  and  _449
REMARK  181  A    between atoms: _448  and  _451
REMARK  182  A    between atoms: _451  and  _452
REMARK  183  A    between atoms: _454  and  _456
REMARK  184  A    between atoms: _456  and  _457
REMARK  185  A    between atoms: _460  and  _462
REMARK  186  A    between atoms: _462  and  _463
REMARK  187  A    between atoms: _462  and  _465
REMARK  188  A    between atoms: _465  and  _466
REMARK  189  A    between atoms: _469  and  _471
REMARK  190  A    between atoms: _471  and  _472
REMARK  191  A    between atoms: _471  and  _474
REMARK  192  A    between atoms: _474  and  _475
REMARK  193  A    between atoms: _478  and  _480
REMARK  194  A    between atoms: _480  and  _481
REMARK  195  A    between atoms: _480  and  _483
REMARK  196  A    between atoms: _487  and  _488
REMARK  197  A    between atoms: _493  and  _495
REMARK  198  A    between atoms: _495  and  _496
REMARK  199  A    between atoms: _495  and  _498
REMARK  200  A    between atoms: _498  and  _499
REMARK  201  A    between atoms: _504  and  _506
REMARK  202  A    between atoms: _506  and  _507
REMARK  203  A    between atoms: _506  and  _509
REMARK  204  A    between atoms: _509  and  _510
REMARK  205  A    between atoms: _513  and  _515
REMARK  206  A    between atoms: _515  and  _516
REMARK  207  A    between atoms: _515  and  _518
REMARK  208  A    between atoms: _518  and  _519
REMARK  209  A    between atoms: _522  and  _524
REMARK  210  A    between atoms: _524  and  _525
REMARK  211  A    between atoms: _524  and  _527
REMARK  212  A    between atoms: _527  and  _528
REMARK  213  A    between atoms: _531  and  _533
REMARK  214  A    between atoms: _533  and  _534
REMARK  215  A    between atoms: _533  and  _536
REMARK  216  A    between atoms: _536  and  _537
REMARK  217  A    between atoms: _543  and  _545
REMARK  218  A    between atoms: _545  and  _546
REMARK  219  A    between atoms: _545  and  _548
REMARK  220  A    between atoms: _548  and  _549
REMARK  221  A    between atoms: _552  and  _554
REMARK  222  A    between atoms: _554  and  _555
REMARK  223  A    between atoms: _554  and  _557
REMARK  224  A    between atoms: _557  and  _558
REMARK  225  A    between atoms: _564  and  _566
REMARK  226  A    between atoms: _566  and  _567
REMARK  227  A    between atoms: _566  and  _569
REMARK  228  A    between atoms: _569  and  _570
REMARK  229  A    between atoms: _573  and  _575
REMARK  230  A    between atoms: _575  and  _576
REMARK  231  A    between atoms: _575  and  _578
REMARK  232  A    between atoms: _578  and  _579
REMARK  233  A    between atoms: _582  and  _584
REMARK  234  A    between atoms: _584  and  _585
REMARK  235  A    between atoms: _587  and  _589
REMARK  236  A    between atoms: _589  and  _590
REMARK  237  A    between atoms: _589  and  _592
REMARK  238  A    between atoms: _592  and  _593
REMARK                            x       y       z     vdW  Elec       q    Type
REMARK                         _______ _______ _______ _____ _____    ______ ____
ROOT
ATOM      1  O   HOH     1      38.205  32.008   2.994  0.00  0.00    +0.000 OA
ENDROOT
TORSDOF 0
REMARK  Name = ../refined-set-2016/1lee/1lee_pocket.pdb
REMARK  238 active torsions:
REMARK  status: ('A' for Active; 'I' for Inactive)
REMARK    1  A    between atoms: _1  and  _3
REMARK    2  A    between atoms: _3  and  _4
REMARK    3  A    between atoms: _3  and  _6
REMARK    4  A    between atoms: _6  and  _7
REMARK    5  A    between atoms: _10  and  _12
REMARK    6  A    between atoms: _12  and  _13
REMARK    7  A    between atoms: _12  and  _15
REMARK    8  A    between atoms: _16  and  _17
REMARK    9  A    between atoms: _19  and  _21
REMARK   10  A    between atoms: _21  and  _22
REMARK   11  A    between atoms: _21  and  _24
REMARK   12  A    between atoms: _24  and  _25
REMARK   13  A    between atoms: _30  and  _31
REMARK   14  A    between atoms: _33  and  _35
REMARK   15  A    between atoms: _35  and  _36
REMARK   16  A    between atoms: _35  and  _38
REMARK   17  A    between atoms: _38  and  _39
REMARK   18  A    between atoms: _42  and  _44
REMARK   19  A    between atoms: _44  and  _45
REMARK   20  A    between atoms: _44  and  _47
REMARK   21  A    between atoms: _47  and  _48
REMARK   22  A    between atoms: _51  and  _53
REMARK   23  A    between atoms: _53  and  _54
REMARK   24  A    between atoms: _53  and  _56
REMARK   25  A    between atoms: _56  and  _57
REMARK   26  A    between atoms: _60  and  _62
REMARK   27  A    between atoms: _62  and  _63
REMARK   28  A    between atoms: _62  and  _65
REMARK   29  A    between atoms: _65  and  _66
REMARK   30  A    between atoms: _69  and  _71
REMARK   31  A    between atoms: _71  and  _72
REMARK   32  A    between atoms: _74  and  _76
REMARK   33  A    between atoms: _76  and  _77
REMARK   34  A    between atoms: _76  and  _79
REMARK   35  A    between atoms: _79  and  _80
REMARK   36  A    between atoms: _82  and  _84
REMARK   37  A    between atoms: _84  and  _85
REMARK   38  A    between atoms: _88  and  _90
REMARK   39  A    between atoms: _90  and  _91
REMARK   40  A    between atoms: _90  and  _93
REMARK   41  A    between atoms: _93  and  _94
REMARK   42  A    between atoms: _99  and  _101
REMARK   43  A    between atoms: _101  and  _102
REMARK   44  A    between atoms: _101  and  _104
REMARK   45  A    between atoms: _104  and  _105
REMARK   46  A    between atoms: _115  and  _117
REMARK   47  A    between atoms: _117  and  _118
REMARK   48  A    between atoms: _117  and  _120
REMARK   49  A    between atoms: _123  and  _125
REMARK   50  A    between atoms: _125  and  _126
REMARK   51  A    between atoms: _125  and  _128
REMARK   52  A    between atoms: _128  and  _129
REMARK   53  A    between atoms: _129  and  _130
REMARK   54  A    between atoms: _133  and  _135
REMARK   55  A    between atoms: _135  and  _136
REMARK   56  A    between atoms: _135  and  _138
REMARK   57  A    between atoms: _138  and  _139
REMARK   58  A    between atoms: _139  and  _140
REMARK   59  A    between atoms: _142  and  _144
REMARK   60  A    between atoms: _144  and  _145
REMARK   61  A    between atoms: _144  and  _147
REMARK   62  A    between atoms: _147  and  _148
REMARK   63  A    between atoms: _153  and  _155
REMARK   64  A    between atoms: _155  and  _156
REMARK   65  A    between atoms: _155  and  _158
REMARK   66  A    between atoms: _158  and  _159
REMARK   67  A    between atoms: _164  and  _165
REMARK   68  A    between atoms: _167  and  _169
REMARK   69  A    between atoms: _169  and  _170
REMARK   70  A    between atoms: _169  and  _172
REMARK   71  A    between atoms: _175  and  _177
REMARK   72  A    between atoms: _177  and  _178
REMARK   73  A    between atoms: _177  and  _180
REMARK   74  A    between atoms: _180  and  _181
REMARK   75  A    between atoms: _183  and  _185
REMARK   76  A    between atoms: _185  and  _186
REMARK   77  A    between atoms: _188  and  _190
REMARK   78  A    between atoms: _190  and  _191
REMARK   79  A    between atoms: _190  and  _193
REMARK   80  A    between atoms: _193  and  _194
REMARK   81  A    between atoms: _197  and  _199
REMARK   82  A    between atoms: _199  and  _200
REMARK   83  A    between atoms: _199  and  _202
REMARK   84  A    between atoms: _205  and  _207
REMARK   85  A    between atoms: _207  and  _208
REMARK   86  A    between atoms: _207  and  _210
REMARK   87  A    between atoms: _210  and  _211
REMARK   88  A    between atoms: _217  and  _219
REMARK   89  A    between atoms: _219  and  _220
REMARK   90  A    between atoms: _219  and  _222
REMARK   91  A    between atoms: _222  and  _223
REMARK   92  A    between atoms: _226  and  _228
REMARK   93  A    between atoms: _228  and  _229
REMARK   94  A    between atoms: _228  and  _231
REMARK   95  A    between atoms: _231  and  _232
REMARK   96  A    between atoms: _237  and  _238
REMARK   97  A    between atoms: _240  and  _242
REMARK   98  A    between atoms: _242  and  _243
REMARK   99  A    between atoms: _242  and  _245
REMARK  100  A    between atoms: _245  and  _246
REMARK  101  A    between atoms: _248  and  _250
REMARK  102  A    between atoms: _250  and  _251
REMARK  103  A    between atoms: _250  and  _253
REMARK  104  A    between atoms: _253  and  _254
REMARK  105  A    between atoms: _260  and  _262
REMARK  106  A    between atoms: _262  and  _263
REMARK  107  A    between atoms: _265  and  _267
REMARK  108  A    between atoms: _267  and  _268
REMARK  109  A    between atoms: _267  and  _270
REMARK  110  A    between atoms: _270  and  _271
REMARK  111  A    between atoms: _274  and  _276
REMARK  112  A    between atoms: _276  and  _277
REMARK  113  A    between atoms: _276  and  _279
REMARK  114  A    between atoms: _279  and  _280
REMARK  115  A    between atoms: _283  and  _285
REMARK  116  A    between atoms: _285  and  _286
REMARK  117  A    between atoms: _285  and  _288
REMARK  118  A    between atoms: _288  and  _289
REMARK  119  A    between atoms: _292  and  _294
REMARK  120  A    between atoms: _294  and  _295
REMARK  121  A    between atoms: _297  and  _299
REMARK  122  A    between atoms: _299  and  _300
REMARK  123  A    between atoms: _299  and  _302
REMARK  124  A    between atoms: _302  and  _303
REMARK  125  A    between atoms: _313  and  _315
REMARK  126  A    between atoms: _315  and  _316
REMARK  127  A    between atoms: _315  and  _318
REMARK  128  A    between atoms: _318  and  _319
REMARK  129  A    between atoms: _322  and  _324
REMARK  130  A    between atoms: _324  and  _325
REMARK  131  A    between atoms: _324  and  _327
REMARK  132  A    between atoms: _327  and  _328
REMARK  133  A    between atoms: _331  and  _333
REMARK  134  A    between atoms: _333  and  _334
REMARK  135  A    between atoms: _333  and  _336
REMARK  136  A    between atoms: _336  and  _337
REMARK  137  A    between atoms: _339  and  _341
REMARK  138  A    between atoms: _341  and  _342
REMARK  139  A    between atoms: _341  and  _344
REMARK  140  A    between atoms: _344  and  _345
REMARK  141  A    between atoms: _348  and  _350
REMARK  142  A    between atoms: _350  and  _351
REMARK  143  A    between atoms: _350  and  _353
REMARK  144  A    between atoms: _353  and  _354
REMARK  145  A    between atoms: _357  and  _359
REMARK  146  A    between atoms: _359  and  _360
REMARK  147  A    between atoms: _359  and  _362
REMARK  148  A    between atoms: _362  and  _363
REMARK  149  A    between atoms: _368  and  _369
REMARK  150  A    between atoms: _371  and  _373
REMARK  151  A    between atoms: _373  and  _374
REMARK  152  A    between atoms: _373  and  _376
REMARK  153  A    between atoms: _376  and  _377
REMARK  154  A    between atoms: _387  and  _389
REMARK  155  A    between atoms: _389  and  _390
REMARK  156  A    between atoms: _389  and  _392
REMARK  157  A    between atoms: _392  and  _393
REMARK  158  A    between atoms: _398  and  _400
REMARK  159  A    between atoms: _400  and  _401
REMARK  160  A    between atoms: _400  and  _403
REMARK  161  A    between atoms: _403  and  _404
REMARK  162  A    between atoms: _407  and  _409
REMARK  163  A    between atoms: _409  and  _410
REMARK  164  A    between atoms: _409  and  _412
REMARK  165  A    between atoms: _415  and  _417
REMARK  166  A    between atoms: _417  and  _418
REMARK  167  A    between atoms: _417  and  _420
REMARK  168  A    between atoms: _420  and  _421
REMARK  169  A    between atoms: _424  and  _426
REMARK  170  A    between atoms: _426  and  _427
REMARK  171  A    between atoms: _426  and  _429
REMARK  172  A    between atoms: _429  and  _430
REMARK  173  A    between atoms: _432  and  _434
REMARK  174  A    between atoms: _434  and  _435
REMARK  175  A    between atoms: _437  and  _439
REMARK  176  A    between atoms: _439  and  _440
REMARK  177  A    between atoms: _439  and  _442
REMARK  178  A    between atoms: _442  and  _443
REMARK  179  A    between atoms: _446  and  _448
REMARK  180  A    between atoms: _448  and  _449
REMARK  181  A    between atoms: _448  and  _451
REMARK  182  A    between atoms: _451  and  _452
REMARK  183  A    between atoms: _454  and  _456
REMARK  184  A    between atoms: _456  and  _457
REMARK  185  A    between atoms: _460  and  _462
REMARK  186  A    between atoms: _462  and  _463
REMARK  187  A    between atoms: _462  and  _465
REMARK  188  A    between atoms: _465  and  _466
REMARK  189  A    between atoms: _469  and  _471
REMARK  190  A    between atoms: _471  and  _472
REMARK  191  A    between atoms: _471  and  _474
REMARK  192  A    between atoms: _474  and  _475
REMARK  193  A    between atoms: _478  and  _480
REMARK  194  A    between atoms: _480  and  _481
REMARK  195  A    between atoms: _480  and  _483
REMARK  196  A    between atoms: _487  and  _488
REMARK  197  A    between atoms: _493  and  _495
REMARK  198  A    between atoms: _495  and  _496
REMARK  199  A    between atoms: _495  and  _498
REMARK  200  A    between atoms: _498  and  _499
REMARK  201  A    between atoms: _504  and  _506
REMARK  202  A    between atoms: _506  and  _507
REMARK  203  A    between atoms: _506  and  _509
REMARK  204  A    between atoms: _509  and  _510
REMARK  205  A    between atoms: _513  and  _515
REMARK  206  A    between atoms: _515  and  _516
REMARK  207  A    between atoms: _515  and  _518
REMARK  208  A    between atoms: _518  and  _519
REMARK  209  A    between atoms: _522  and  _524
REMARK  210  A    between atoms: _524  and  _525
REMARK  211  A    between atoms: _524  and  _527
REMARK  212  A    between atoms: _527  and  _528
REMARK  213  A    between atoms: _531  and  _533
REMARK  214  A    between atoms: _533  and  _534
REMARK  215  A    between atoms: _533  and  _536
REMARK  216  A    between atoms: _536  and  _537
REMARK  217  A    between atoms: _543  and  _545
REMARK  218  A    between atoms: _545  and  _546
REMARK  219  A    between atoms: _545  and  _548
REMARK  220  A    between atoms: _548  and  _549
REMARK  221  A    between atoms: _552  and  _554
REMARK  222  A    between atoms: _554  and  _555
REMARK  223  A    between atoms: _554  and  _557
REMARK  224  A    between atoms: _557  and  _558
REMARK  225  A    between atoms: _564  and  _566
REMARK  226  A    between atoms: _566  and  _567
REMARK  227  A    between atoms: _566  and  _569
REMARK  228  A    between atoms: _569  and  _570
REMARK  229  A    between atoms: _573  and  _575
REMARK  230  A    between atoms: _575  and  _576
REMARK  231  A    between atoms: _575  and  _578
REMARK  232  A    between atoms: _578  and  _579
REMARK  233  A    between atoms: _582  and  _584
REMARK  234  A    between atoms: _584  and  _585
REMARK  235  A    between atoms: _587  and  _589
REMARK  236  A    between atoms: _589  and  _590
REMARK  237  A    between atoms: _589  and  _592
REMARK  238  A    between atoms: _592  and  _593
REMARK                            x       y       z     vdW  Elec       q    Type
REMARK                         _______ _______ _______ _____ _____    ______ ____
ROOT
ATOM      1  O   HOH     1      34.470  32.162  21.202  0.00  0.00    +0.000 OA
ENDROOT
TORSDOF 0
REMARK  Name = ../refined-set-2016/1lee/1lee_pocket.pdb
REMARK  238 active torsions:
REMARK  status: ('A' for Active; 'I' for Inactive)
REMARK    1  A    between atoms: _1  and  _3
REMARK    2  A    between atoms: _3  and  _4
REMARK    3  A    between atoms: _3  and  _6
REMARK    4  A    between atoms: _6  and  _7
REMARK    5  A    between atoms: _10  and  _12
REMARK    6  A    between atoms: _12  and  _13
REMARK    7  A    between atoms: _12  and  _15
REMARK    8  A    between atoms: _16  and  _17
REMARK    9  A    between atoms: _19  and  _21
REMARK   10  A    between atoms: _21  and  _22
REMARK   11  A    between atoms: _21  and  _24
REMARK   12  A    between atoms: _24  and  _25
REMARK   13  A    between atoms: _30  and  _31
REMARK   14  A    between atoms: _33  and  _35
REMARK   15  A    between atoms: _35  and  _36
REMARK   16  A    between atoms: _35  and  _38
REMARK   17  A    between atoms: _38  and  _39
REMARK   18  A    between atoms: _42  and  _44
REMARK   19  A    between atoms: _44  and  _45
REMARK   20  A    between atoms: _44  and  _47
REMARK   21  A    between atoms: _47  and  _48
REMARK   22  A    between atoms: _51  and  _53
REMARK   23  A    between atoms: _53  and  _54
REMARK   24  A    between atoms: _53  and  _56
REMARK   25  A    between atoms: _56  and  _57
REMARK   26  A    between atoms: _60  and  _62
REMARK   27  A    between atoms: _62  and  _63
REMARK   28  A    between atoms: _62  and  _65
REMARK   29  A    between atoms: _65  and  _66
REMARK   30  A    between atoms: _69  and  _71
REMARK   31  A    between atoms: _71  and  _72
REMARK   32  A    between atoms: _74  and  _76
REMARK   33  A    between atoms: _76  and  _77
REMARK   34  A    between atoms: _76  and  _79
REMARK   35  A    between atoms: _79  and  _80
REMARK   36  A    between atoms: _82  and  _84
REMARK   37  A    between atoms: _84  and  _85
REMARK   38  A    between atoms: _88  and  _90
REMARK   39  A    between atoms: _90  and  _91
REMARK   40  A    between atoms: _90  and  _93
REMARK   41  A    between atoms: _93  and  _94
REMARK   42  A    between atoms: _99  and  _101
REMARK   43  A    between atoms: _101  and  _102
REMARK   44  A    between atoms: _101  and  _104
REMARK   45  A    between atoms: _104  and  _105
REMARK   46  A    between atoms: _115  and  _117
REMARK   47  A    between atoms: _117  and  _118
REMARK   48  A    between atoms: _117  and  _120
REMARK   49  A    between atoms: _123  and  _125
REMARK   50  A    between atoms: _125  and  _126
REMARK   51  A    between atoms: _125  and  _128
REMARK   52  A    between atoms: _128  and  _129
REMARK   53  A    between atoms: _129  and  _130
REMARK   54  A    between atoms: _133  and  _135
REMARK   55  A    between atoms: _135  and  _136
REMARK   56  A    between atoms: _135  and  _138
REMARK   57  A    between atoms: _138  and  _139
REMARK   58  A    between atoms: _139  and  _140
REMARK   59  A    between atoms: _142  and  _144
REMARK   60  A    between atoms: _144  and  _145
REMARK   61  A    between atoms: _144  and  _147
REMARK   62  A    between atoms: _147  and  _148
REMARK   63  A    between atoms: _153  and  _155
REMARK   64  A    between atoms: _155  and  _156
REMARK   65  A    between atoms: _155  and  _158
REMARK   66  A    between atoms: _158  and  _159
REMARK   67  A    between atoms: _164  and  _165
REMARK   68  A    between atoms: _167  and  _169
REMARK   69  A    between atoms: _169  and  _170
REMARK   70  A    between atoms: _169  and  _172
REMARK   71  A    between atoms: _175  and  _177
REMARK   72  A    between atoms: _177  and  _178
REMARK   73  A    between atoms: _177  and  _180
REMARK   74  A    between atoms: _180  and  _181
REMARK   75  A    between atoms: _183  and  _185
REMARK   76  A    between atoms: _185  and  _186
REMARK   77  A    between atoms: _188  and  _190
REMARK   78  A    between atoms: _190  and  _191
REMARK   79  A    between atoms: _190  and  _193
REMARK   80  A    between atoms: _193  and  _194
REMARK   81  A    between atoms: _197  and  _199
REMARK   82  A    between atoms: _199  and  _200
REMARK   83  A    between atoms: _199  and  _202
REMARK   84  A    between atoms: _205  and  _207
REMARK   85  A    between atoms: _207  and  _208
REMARK   86  A    between atoms: _207  and  _210
REMARK   87  A    between atoms: _210  and  _211
REMARK   88  A    between atoms: _217  and  _219
REMARK   89  A    between atoms: _219  and  _220
REMARK   90  A    between atoms: _219  and  _222
REMARK   91  A    between atoms: _222  and  _223
REMARK   92  A    between atoms: _226  and  _228
REMARK   93  A    between atoms: _228  and  _229
REMARK   94  A    between atoms: _228  and  _231
REMARK   95  A    between atoms: _231  and  _232
REMARK   96  A    between atoms: _237  and  _238
REMARK   97  A    between atoms: _240  and  _242
REMARK   98  A    between atoms: _242  and  _243
REMARK   99  A    between atoms: _242  and  _245
REMARK  100  A    between atoms: _245  and  _246
REMARK  101  A    between atoms: _248  and  _250
REMARK  102  A    between atoms: _250  and  _251
REMARK  103  A    between atoms: _250  and  _253
REMARK  104  A    between atoms: _253  and  _254
REMARK  105  A    between atoms: _260  and  _262
REMARK  106  A    between atoms: _262  and  _263
REMARK  107  A    between atoms: _265  and  _267
REMARK  108  A    between atoms: _267  and  _268
REMARK  109  A    between atoms: _267  and  _270
REMARK  110  A    between atoms: _270  and  _271
REMARK  111  A    between atoms: _274  and  _276
REMARK  112  A    between atoms: _276  and  _277
REMARK  113  A    between atoms: _276  and  _279
REMARK  114  A    between atoms: _279  and  _280
REMARK  115  A    between atoms: _283  and  _285
REMARK  116  A    between atoms: _285  and  _286
REMARK  117  A    between atoms: _285  and  _288
REMARK  118  A    between atoms: _288  and  _289
REMARK  119  A    between atoms: _292  and  _294
REMARK  120  A    between atoms: _294  and  _295
REMARK  121  A    between atoms: _297  and  _299
REMARK  122  A    between atoms: _299  and  _300
REMARK  123  A    between atoms: _299  and  _302
REMARK  124  A    between atoms: _302  and  _303
REMARK  125  A    between atoms: _313  and  _315
REMARK  126  A    between atoms: _315  and  _316
REMARK  127  A    between atoms: _315  and  _318
REMARK  128  A    between atoms: _318  and  _319
REMARK  129  A    between atoms: _322  and  _324
REMARK  130  A    between atoms: _324  and  _325
REMARK  131  A    between atoms: _324  and  _327
REMARK  132  A    between atoms: _327  and  _328
REMARK  133  A    between atoms: _331  and  _333
REMARK  134  A    between atoms: _333  and  _334
REMARK  135  A    between atoms: _333  and  _336
REMARK  136  A    between atoms: _336  and  _337
REMARK  137  A    between atoms: _339  and  _341
REMARK  138  A    between atoms: _341  and  _342
REMARK  139  A    between atoms: _341  and  _344
REMARK  140  A    between atoms: _344  and  _345
REMARK  141  A    between atoms: _348  and  _350
REMARK  142  A    between atoms: _350  and  _351
REMARK  143  A    between atoms: _350  and  _353
REMARK  144  A    between atoms: _353  and  _354
REMARK  145  A    between atoms: _357  and  _359
REMARK  146  A    between atoms: _359  and  _360
REMARK  147  A    between atoms: _359  and  _362
REMARK  148  A    between atoms: _362  and  _363
REMARK  149  A    between atoms: _368  and  _369
REMARK  150  A    between atoms: _371  and  _373
REMARK  151  A    between atoms: _373  and  _374
REMARK  152  A    between atoms: _373  and  _376
REMARK  153  A    between atoms: _376  and  _377
REMARK  154  A    between atoms: _387  and  _389
REMARK  155  A    between atoms: _389  and  _390
REMARK  156  A    between atoms: _389  and  _392
REMARK  157  A    between atoms: _392  and  _393
REMARK  158  A    between atoms: _398  and  _400
REMARK  159  A    between atoms: _400  and  _401
REMARK  160  A    between atoms: _400  and  _403
REMARK  161  A    between atoms: _403  and  _404
REMARK  162  A    between atoms: _407  and  _409
REMARK  163  A    between atoms: _409  and  _410
REMARK  164  A    between atoms: _409  and  _412
REMARK  165  A    between atoms: _415  and  _417
REMARK  166  A    between atoms: _417  and  _418
REMARK  167  A    between atoms: _417  and  _420
REMARK  168  A    between atoms: _420  and  _421
REMARK  169  A    between atoms: _424  and  _426
REMARK  170  A    between atoms: _426  and  _427
REMARK  171  A    between atoms: _426  and  _429
REMARK  172  A    between atoms: _429  and  _430
REMARK  173  A    between atoms: _432  and  _434
REMARK  174  A    between atoms: _434  and  _435
REMARK  175  A    between atoms: _437  and  _439
REMARK  176  A    between atoms: _439  and  _440
REMARK  177  A    between atoms: _439  and  _442
REMARK  178  A    between atoms: _442  and  _443
REMARK  179  A    between atoms: _446  and  _448
REMARK  180  A    between atoms: _448  and  _449
REMARK  181  A    between atoms: _448  and  _451
REMARK  182  A    between atoms: _451  and  _452
REMARK  183  A    between atoms: _454  and  _456
REMARK  184  A    between atoms: _456  and  _457
REMARK  185  A    between atoms: _460  and  _462
REMARK  186  A    between atoms: _462  and  _463
REMARK  187  A    between atoms: _462  and  _465
REMARK  188  A    between atoms: _465  and  _466
REMARK  189  A    between atoms: _469  and  _471
REMARK  190  A    between atoms: _471  and  _472
REMARK  191  A    between atoms: _471  and  _474
REMARK  192  A    between atoms: _474  and  _475
REMARK  193  A    between atoms: _478  and  _480
REMARK  194  A    between atoms: _480  and  _481
REMARK  195  A    between atoms: _480  and  _483
REMARK  196  A    between atoms: _487  and  _488
REMARK  197  A    between atoms: _493  and  _495
REMARK  198  A    between atoms: _495  and  _496
REMARK  199  A    between atoms: _495  and  _498
REMARK  200  A    between atoms: _498  and  _499
REMARK  201  A    between atoms: _504  and  _506
REMARK  202  A    between atoms: _506  and  _507
REMARK  203  A    between atoms: _506  and  _509
REMARK  204  A    between atoms: _509  and  _510
REMARK  205  A    between atoms: _513  and  _515
REMARK  206  A    between atoms: _515  and  _516
REMARK  207  A    between atoms: _515  and  _518
REMARK  208  A    between atoms: _518  and  _519
REMARK  209  A    between atoms: _522  and  _524
REMARK  210  A    between atoms: _524  and  _525
REMARK  211  A    between atoms: _524  and  _527
REMARK  212  A    between atoms: _527  and  _528
REMARK  213  A    between atoms: _531  and  _533
REMARK  214  A    between atoms: _533  and  _534
REMARK  215  A    between atoms: _533  and  _536
REMARK  216  A    between atoms: _536  and  _537
REMARK  217  A    between atoms: _543  and  _545
REMARK  218  A    between atoms: _545  and  _546
REMARK  219  A    between atoms: _545  and  _548
REMARK  220  A    between atoms: _548  and  _549
REMARK  221  A    between atoms: _552  and  _554
REMARK  222  A    between atoms: _554  and  _555
REMARK  223  A    between atoms: _554  and  _557
REMARK  224  A    between atoms: _557  and  _558
REMARK  225  A    between atoms: _564  and  _566
REMARK  226  A    between atoms: _566  and  _567
REMARK  227  A    between atoms: _566  and  _569
REMARK  228  A    between atoms: _569  and  _570
REMARK  229  A    between atoms: _573  and  _575
REMARK  230  A    between atoms: _575  and  _576
REMARK  231  A    between atoms: _575  and  _578
REMARK  232  A    between atoms: _578  and  _579
REMARK  233  A    between atoms: _582  and  _584
REMARK  234  A    between atoms: _584  and  _585
REMARK  235  A    between atoms: _587  and  _589
REMARK  236  A    between atoms: _589  and  _590
REMARK  237  A    between atoms: _589  and  _592
REMARK  238  A    between atoms: _592  and  _593
REMARK                            x       y       z     vdW  Elec       q    Type
REMARK                         _______ _______ _______ _____ _____    ______ ____
ROOT
ATOM      1  O   HOH     1      24.664  34.930  16.366  0.00  0.00    +0.000 OA
ENDROOT
TORSDOF 0
REMARK  Name = ../refined-set-2016/1lee/1lee_pocket.pdb
REMARK  238 active torsions:
REMARK  status: ('A' for Active; 'I' for Inactive)
REMARK    1  A    between atoms: _1  and  _3
REMARK    2  A    between atoms: _3  and  _4
REMARK    3  A    between atoms: _3  and  _6
REMARK    4  A    between atoms: _6  and  _7
REMARK    5  A    between atoms: _10  and  _12
REMARK    6  A    between atoms: _12  and  _13
REMARK    7  A    between atoms: _12  and  _15
REMARK    8  A    between atoms: _16  and  _17
REMARK    9  A    between atoms: _19  and  _21
REMARK   10  A    between atoms: _21  and  _22
REMARK   11  A    between atoms: _21  and  _24
REMARK   12  A    between atoms: _24  and  _25
REMARK   13  A    between atoms: _30  and  _31
REMARK   14  A    between atoms: _33  and  _35
REMARK   15  A    between atoms: _35  and  _36
REMARK   16  A    between atoms: _35  and  _38
REMARK   17  A    between atoms: _38  and  _39
REMARK   18  A    between atoms: _42  and  _44
REMARK   19  A    between atoms: _44  and  _45
REMARK   20  A    between atoms: _44  and  _47
REMARK   21  A    between atoms: _47  and  _48
REMARK   22  A    between atoms: _51  and  _53
REMARK   23  A    between atoms: _53  and  _54
REMARK   24  A    between atoms: _53  and  _56
REMARK   25  A    between atoms: _56  and  _57
REMARK   26  A    between atoms: _60  and  _62
REMARK   27  A    between atoms: _62  and  _63
REMARK   28  A    between atoms: _62  and  _65
REMARK   29  A    between atoms: _65  and  _66
REMARK   30  A    between atoms: _69  and  _71
REMARK   31  A    between atoms: _71  and  _72
REMARK   32  A    between atoms: _74  and  _76
REMARK   33  A    between atoms: _76  and  _77
REMARK   34  A    between atoms: _76  and  _79
REMARK   35  A    between atoms: _79  and  _80
REMARK   36  A    between atoms: _82  and  _84
REMARK   37  A    between atoms: _84  and  _85
REMARK   38  A    between atoms: _88  and  _90
REMARK   39  A    between atoms: _90  and  _91
REMARK   40  A    between atoms: _90  and  _93
REMARK   41  A    between atoms: _93  and  _94
REMARK   42  A    between atoms: _99  and  _101
REMARK   43  A    between atoms: _101  and  _102
REMARK   44  A    between atoms: _101  and  _104
REMARK   45  A    between atoms: _104  and  _105
REMARK   46  A    between atoms: _115  and  _117
REMARK   47  A    between atoms: _117  and  _118
REMARK   48  A    between atoms: _117  and  _120
REMARK   49  A    between atoms: _123  and  _125
REMARK   50  A    between atoms: _125  and  _126
REMARK   51  A    between atoms: _125  and  _128
REMARK   52  A    between atoms: _128  and  _129
REMARK   53  A    between atoms: _129  and  _130
REMARK   54  A    between atoms: _133  and  _135
REMARK   55  A    between atoms: _135  and  _136
REMARK   56  A    between atoms: _135  and  _138
REMARK   57  A    between atoms: _138  and  _139
REMARK   58  A    between atoms: _139  and  _140
REMARK   59  A    between atoms: _142  and  _144
REMARK   60  A    between atoms: _144  and  _145
REMARK   61  A    between atoms: _144  and  _147
REMARK   62  A    between atoms: _147  and  _148
REMARK   63  A    between atoms: _153  and  _155
REMARK   64  A    between atoms: _155  and  _156
REMARK   65  A    between atoms: _155  and  _158
REMARK   66  A    between atoms: _158  and  _159
REMARK   67  A    between atoms: _164  and  _165
REMARK   68  A    between atoms: _167  and  _169
REMARK   69  A    between atoms: _169  and  _170
REMARK   70  A    between atoms: _169  and  _172
REMARK   71  A    between atoms: _175  and  _177
REMARK   72  A    between atoms: _177  and  _178
REMARK   73  A    between atoms: _177  and  _180
REMARK   74  A    between atoms: _180  and  _181
REMARK   75  A    between atoms: _183  and  _185
REMARK   76  A    between atoms: _185  and  _186
REMARK   77  A    between atoms: _188  and  _190
REMARK   78  A    between atoms: _190  and  _191
REMARK   79  A    between atoms: _190  and  _193
REMARK   80  A    between atoms: _193  and  _194
REMARK   81  A    between atoms: _197  and  _199
REMARK   82  A    between atoms: _199  and  _200
REMARK   83  A    between atoms: _199  and  _202
REMARK   84  A    between atoms: _205  and  _207
REMARK   85  A    between atoms: _207  and  _208
REMARK   86  A    between atoms: _207  and  _210
REMARK   87  A    between atoms: _210  and  _211
REMARK   88  A    between atoms: _217  and  _219
REMARK   89  A    between atoms: _219  and  _220
REMARK   90  A    between atoms: _219  and  _222
REMARK   91  A    between atoms: _222  and  _223
REMARK   92  A    between atoms: _226  and  _228
REMARK   93  A    between atoms: _228  and  _229
REMARK   94  A    between atoms: _228  and  _231
REMARK   95  A    between atoms: _231  and  _232
REMARK   96  A    between atoms: _237  and  _238
REMARK   97  A    between atoms: _240  and  _242
REMARK   98  A    between atoms: _242  and  _243
REMARK   99  A    between atoms: _242  and  _245
REMARK  100  A    between atoms: _245  and  _246
REMARK  101  A    between atoms: _248  and  _250
REMARK  102  A    between atoms: _250  and  _251
REMARK  103  A    between atoms: _250  and  _253
REMARK  104  A    between atoms: _253  and  _254
REMARK  105  A    between atoms: _260  and  _262
REMARK  106  A    between atoms: _262  and  _263
REMARK  107  A    between atoms: _265  and  _267
REMARK  108  A    between atoms: _267  and  _268
REMARK  109  A    between atoms: _267  and  _270
REMARK  110  A    between atoms: _270  and  _271
REMARK  111  A    between atoms: _274  and  _276
REMARK  112  A    between atoms: _276  and  _277
REMARK  113  A    between atoms: _276  and  _279
REMARK  114  A    between atoms: _279  and  _280
REMARK  115  A    between atoms: _283  and  _285
REMARK  116  A    between atoms: _285  and  _286
REMARK  117  A    between atoms: _285  and  _288
REMARK  118  A    between atoms: _288  and  _289
REMARK  119  A    between atoms: _292  and  _294
REMARK  120  A    between atoms: _294  and  _295
REMARK  121  A    between atoms: _297  and  _299
REMARK  122  A    between atoms: _299  and  _300
REMARK  123  A    between atoms: _299  and  _302
REMARK  124  A    between atoms: _302  and  _303
REMARK  125  A    between atoms: _313  and  _315
REMARK  126  A    between atoms: _315  and  _316
REMARK  127  A    between atoms: _315  and  _318
REMARK  128  A    between atoms: _318  and  _319
REMARK  129  A    between atoms: _322  and  _324
REMARK  130  A    between atoms: _324  and  _325
REMARK  131  A    between atoms: _324  and  _327
REMARK  132  A    between atoms: _327  and  _328
REMARK  133  A    between atoms: _331  and  _333
REMARK  134  A    between atoms: _333  and  _334
REMARK  135  A    between atoms: _333  and  _336
REMARK  136  A    between atoms: _336  and  _337
REMARK  137  A    between atoms: _339  and  _341
REMARK  138  A    between atoms: _341  and  _342
REMARK  139  A    between atoms: _341  and  _344
REMARK  140  A    between atoms: _344  and  _345
REMARK  141  A    between atoms: _348  and  _350
REMARK  142  A    between atoms: _350  and  _351
REMARK  143  A    between atoms: _350  and  _353
REMARK  144  A    between atoms: _353  and  _354
REMARK  145  A    between atoms: _357  and  _359
REMARK  146  A    between atoms: _359  and  _360
REMARK  147  A    between atoms: _359  and  _362
REMARK  148  A    between atoms: _362  and  _363
REMARK  149  A    between atoms: _368  and  _369
REMARK  150  A    between atoms: _371  and  _373
REMARK  151  A    between atoms: _373  and  _374
REMARK  152  A    between atoms: _373  and  _376
REMARK  153  A    between atoms: _376  and  _377
REMARK  154  A    between atoms: _387  and  _389
REMARK  155  A    between atoms: _389  and  _390
REMARK  156  A    between atoms: _389  and  _392
REMARK  157  A    between atoms: _392  and  _393
REMARK  158  A    between atoms: _398  and  _400
REMARK  159  A    between atoms: _400  and  _401
REMARK  160  A    between atoms: _400  and  _403
REMARK  161  A    between atoms: _403  and  _404
REMARK  162  A    between atoms: _407  and  _409
REMARK  163  A    between atoms: _409  and  _410
REMARK  164  A    between atoms: _409  and  _412
REMARK  165  A    between atoms: _415  and  _417
REMARK  166  A    between atoms: _417  and  _418
REMARK  167  A    between atoms: _417  and  _420
REMARK  168  A    between atoms: _420  and  _421
REMARK  169  A    between atoms: _424  and  _426
REMARK  170  A    between atoms: _426  and  _427
REMARK  171  A    between atoms: _426  and  _429
REMARK  172  A    between atoms: _429  and  _430
REMARK  173  A    between atoms: _432  and  _434
REMARK  174  A    between atoms: _434  and  _435
REMARK  175  A    between atoms: _437  and  _439
REMARK  176  A    between atoms: _439  and  _440
REMARK  177  A    between atoms: _439  and  _442
REMARK  178  A    between atoms: _442  and  _443
REMARK  179  A    between atoms: _446  and  _448
REMARK  180  A    between atoms: _448  and  _449
REMARK  181  A    between atoms: _448  and  _451
REMARK  182  A    between atoms: _451  and  _452
REMARK  183  A    between atoms: _454  and  _456
REMARK  184  A    between atoms: _456  and  _457
REMARK  185  A    between atoms: _460  and  _462
REMARK  186  A    between atoms: _462  and  _463
REMARK  187  A    between atoms: _462  and  _465
REMARK  188  A    between atoms: _465  and  _466
REMARK  189  A    between atoms: _469  and  _471
REMARK  190  A    between atoms: _471  and  _472
REMARK  191  A    between atoms: _471  and  _474
REMARK  192  A    between atoms: _474  and  _475
REMARK  193  A    between atoms: _478  and  _480
REMARK  194  A    between atoms: _480  and  _481
REMARK  195  A    between atoms: _480  and  _483
REMARK  196  A    between atoms: _487  and  _488
REMARK  197  A    between atoms: _493  and  _495
REMARK  198  A    between atoms: _495  and  _496
REMARK  199  A    between atoms: _495  and  _498
REMARK  200  A    between atoms: _498  and  _499
REMARK  201  A    between atoms: _504  and  _506
REMARK  202  A    between atoms: _506  and  _507
REMARK  203  A    between atoms: _506  and  _509
REMARK  204  A    between atoms: _509  and  _510
REMARK  205  A    between atoms: _513  and  _515
REMARK  206  A    between atoms: _515  and  _516
REMARK  207  A    between atoms: _515  and  _518
REMARK  208  A    between atoms: _518  and  _519
REMARK  209  A    between atoms: _522  and  _524
REMARK  210  A    between atoms: _524  and  _525
REMARK  211  A    between atoms: _524  and  _527
REMARK  212  A    between atoms: _527  and  _528
REMARK  213  A    between atoms: _531  and  _533
REMARK  214  A    between atoms: _533  and  _534
REMARK  215  A    between atoms: _533  and  _536
REMARK  216  A    between atoms: _536  and  _537
REMARK  217  A    between atoms: _543  and  _545
REMARK  218  A    between atoms: _545  and  _546
REMARK  219  A    between atoms: _545  and  _548
REMARK  220  A    between atoms: _548  and  _549
REMARK  221  A    between atoms: _552  and  _554
REMARK  222  A    between atoms: _554  and  _555
REMARK  223  A    between atoms: _554  and  _557
REMARK  224  A    between atoms: _557  and  _558
REMARK  225  A    between atoms: _564  and  _566
REMARK  226  A    between atoms: _566  and  _567
REMARK  227  A    between atoms: _566  and  _569
REMARK  228  A    between atoms: _569  and  _570
REMARK  229  A    between atoms: _573  and  _575
REMARK  230  A    between atoms: _575  and  _576
REMARK  231  A    between atoms: _575  and  _578
REMARK  232  A    between atoms: _578  and  _579
REMARK  233  A    between atoms: _582  and  _584
REMARK  234  A    between atoms: _584  and  _585
REMARK  235  A    between atoms: _587  and  _589
REMARK  236  A    between atoms: _589  and  _590
REMARK  237  A    between atoms: _589  and  _592
REMARK  238  A    between atoms: _592  and  _593
REMARK                            x       y       z     vdW  Elec       q    Type
REMARK                         _______ _______ _______ _____ _____    ______ ____
ROOT
ATOM      1  O   HOH     1      26.527  38.349  18.059  0.00  0.00    +0.000 OA
ENDROOT
TORSDOF 0
REMARK  Name = ../refined-set-2016/1lee/1lee_pocket.pdb
REMARK  238 active torsions:
REMARK  status: ('A' for Active; 'I' for Inactive)
REMARK    1  A    between atoms: _1  and  _3
REMARK    2  A    between atoms: _3  and  _4
REMARK    3  A    between atoms: _3  and  _6
REMARK    4  A    between atoms: _6  and  _7
REMARK    5  A    between atoms: _10  and  _12
REMARK    6  A    between atoms: _12  and  _13
REMARK    7  A    between atoms: _12  and  _15
REMARK    8  A    between atoms: _16  and  _17
REMARK    9  A    between atoms: _19  and  _21
REMARK   10  A    between atoms: _21  and  _22
REMARK   11  A    between atoms: _21  and  _24
REMARK   12  A    between atoms: _24  and  _25
REMARK   13  A    between atoms: _30  and  _31
REMARK   14  A    between atoms: _33  and  _35
REMARK   15  A    between atoms: _35  and  _36
REMARK   16  A    between atoms: _35  and  _38
REMARK   17  A    between atoms: _38  and  _39
REMARK   18  A    between atoms: _42  and  _44
REMARK   19  A    between atoms: _44  and  _45
REMARK   20  A    between atoms: _44  and  _47
REMARK   21  A    between atoms: _47  and  _48
REMARK   22  A    between atoms: _51  and  _53
REMARK   23  A    between atoms: _53  and  _54
REMARK   24  A    between atoms: _53  and  _56
REMARK   25  A    between atoms: _56  and  _57
REMARK   26  A    between atoms: _60  and  _62
REMARK   27  A    between atoms: _62  and  _63
REMARK   28  A    between atoms: _62  and  _65
REMARK   29  A    between atoms: _65  and  _66
REMARK   30  A    between atoms: _69  and  _71
REMARK   31  A    between atoms: _71  and  _72
REMARK   32  A    between atoms: _74  and  _76
REMARK   33  A    between atoms: _76  and  _77
REMARK   34  A    between atoms: _76  and  _79
REMARK   35  A    between atoms: _79  and  _80
REMARK   36  A    between atoms: _82  and  _84
REMARK   37  A    between atoms: _84  and  _85
REMARK   38  A    between atoms: _88  and  _90
REMARK   39  A    between atoms: _90  and  _91
REMARK   40  A    between atoms: _90  and  _93
REMARK   41  A    between atoms: _93  and  _94
REMARK   42  A    between atoms: _99  and  _101
REMARK   43  A    between atoms: _101  and  _102
REMARK   44  A    between atoms: _101  and  _104
REMARK   45  A    between atoms: _104  and  _105
REMARK   46  A    between atoms: _115  and  _117
REMARK   47  A    between atoms: _117  and  _118
REMARK   48  A    between atoms: _117  and  _120
REMARK   49  A    between atoms: _123  and  _125
REMARK   50  A    between atoms: _125  and  _126
REMARK   51  A    between atoms: _125  and  _128
REMARK   52  A    between atoms: _128  and  _129
REMARK   53  A    between atoms: _129  and  _130
REMARK   54  A    between atoms: _133  and  _135
REMARK   55  A    between atoms: _135  and  _136
REMARK   56  A    between atoms: _135  and  _138
REMARK   57  A    between atoms: _138  and  _139
REMARK   58  A    between atoms: _139  and  _140
REMARK   59  A    between atoms: _142  and  _144
REMARK   60  A    between atoms: _144  and  _145
REMARK   61  A    between atoms: _144  and  _147
REMARK   62  A    between atoms: _147  and  _148
REMARK   63  A    between atoms: _153  and  _155
REMARK   64  A    between atoms: _155  and  _156
REMARK   65  A    between atoms: _155  and  _158
REMARK   66  A    between atoms: _158  and  _159
REMARK   67  A    between atoms: _164  and  _165
REMARK   68  A    between atoms: _167  and  _169
REMARK   69  A    between atoms: _169  and  _170
REMARK   70  A    between atoms: _169  and  _172
REMARK   71  A    between atoms: _175  and  _177
REMARK   72  A    between atoms: _177  and  _178
REMARK   73  A    between atoms: _177  and  _180
REMARK   74  A    between atoms: _180  and  _181
REMARK   75  A    between atoms: _183  and  _185
REMARK   76  A    between atoms: _185  and  _186
REMARK   77  A    between atoms: _188  and  _190
REMARK   78  A    between atoms: _190  and  _191
REMARK   79  A    between atoms: _190  and  _193
REMARK   80  A    between atoms: _193  and  _194
REMARK   81  A    between atoms: _197  and  _199
REMARK   82  A    between atoms: _199  and  _200
REMARK   83  A    between atoms: _199  and  _202
REMARK   84  A    between atoms: _205  and  _207
REMARK   85  A    between atoms: _207  and  _208
REMARK   86  A    between atoms: _207  and  _210
REMARK   87  A    between atoms: _210  and  _211
REMARK   88  A    between atoms: _217  and  _219
REMARK   89  A    between atoms: _219  and  _220
REMARK   90  A    between atoms: _219  and  _222
REMARK   91  A    between atoms: _222  and  _223
REMARK   92  A    between atoms: _226  and  _228
REMARK   93  A    between atoms: _228  and  _229
REMARK   94  A    between atoms: _228  and  _231
REMARK   95  A    between atoms: _231  and  _232
REMARK   96  A    between atoms: _237  and  _238
REMARK   97  A    between atoms: _240  and  _242
REMARK   98  A    between atoms: _242  and  _243
REMARK   99  A    between atoms: _242  and  _245
REMARK  100  A    between atoms: _245  and  _246
REMARK  101  A    between atoms: _248  and  _250
REMARK  102  A    between atoms: _250  and  _251
REMARK  103  A    between atoms: _250  and  _253
REMARK  104  A    between atoms: _253  and  _254
REMARK  105  A    between atoms: _260  and  _262
REMARK  106  A    between atoms: _262  and  _263
REMARK  107  A    between atoms: _265  and  _267
REMARK  108  A    between atoms: _267  and  _268
REMARK  109  A    between atoms: _267  and  _270
REMARK  110  A    between atoms: _270  and  _271
REMARK  111  A    between atoms: _274  and  _276
REMARK  112  A    between atoms: _276  and  _277
REMARK  113  A    between atoms: _276  and  _279
REMARK  114  A    between atoms: _279  and  _280
REMARK  115  A    between atoms: _283  and  _285
REMARK  116  A    between atoms: _285  and  _286
REMARK  117  A    between atoms: _285  and  _288
REMARK  118  A    between atoms: _288  and  _289
REMARK  119  A    between atoms: _292  and  _294
REMARK  120  A    between atoms: _294  and  _295
REMARK  121  A    between atoms: _297  and  _299
REMARK  122  A    between atoms: _299  and  _300
REMARK  123  A    between atoms: _299  and  _302
REMARK  124  A    between atoms: _302  and  _303
REMARK  125  A    between atoms: _313  and  _315
REMARK  126  A    between atoms: _315  and  _316
REMARK  127  A    between atoms: _315  and  _318
REMARK  128  A    between atoms: _318  and  _319
REMARK  129  A    between atoms: _322  and  _324
REMARK  130  A    between atoms: _324  and  _325
REMARK  131  A    between atoms: _324  and  _327
REMARK  132  A    between atoms: _327  and  _328
REMARK  133  A    between atoms: _331  and  _333
REMARK  134  A    between atoms: _333  and  _334
REMARK  135  A    between atoms: _333  and  _336
REMARK  136  A    between atoms: _336  and  _337
REMARK  137  A    between atoms: _339  and  _341
REMARK  138  A    between atoms: _341  and  _342
REMARK  139  A    between atoms: _341  and  _344
REMARK  140  A    between atoms: _344  and  _345
REMARK  141  A    between atoms: _348  and  _350
REMARK  142  A    between atoms: _350  and  _351
REMARK  143  A    between atoms: _350  and  _353
REMARK  144  A    between atoms: _353  and  _354
REMARK  145  A    between atoms: _357  and  _359
REMARK  146  A    between atoms: _359  and  _360
REMARK  147  A    between atoms: _359  and  _362
REMARK  148  A    between atoms: _362  and  _363
REMARK  149  A    between atoms: _368  and  _369
REMARK  150  A    between atoms: _371  and  _373
REMARK  151  A    between atoms: _373  and  _374
REMARK  152  A    between atoms: _373  and  _376
REMARK  153  A    between atoms: _376  and  _377
REMARK  154  A    between atoms: _387  and  _389
REMARK  155  A    between atoms: _389  and  _390
REMARK  156  A    between atoms: _389  and  _392
REMARK  157  A    between atoms: _392  and  _393
REMARK  158  A    between atoms: _398  and  _400
REMARK  159  A    between atoms: _400  and  _401
REMARK  160  A    between atoms: _400  and  _403
REMARK  161  A    between atoms: _403  and  _404
REMARK  162  A    between atoms: _407  and  _409
REMARK  163  A    between atoms: _409  and  _410
REMARK  164  A    between atoms: _409  and  _412
REMARK  165  A    between atoms: _415  and  _417
REMARK  166  A    between atoms: _417  and  _418
REMARK  167  A    between atoms: _417  and  _420
REMARK  168  A    between atoms: _420  and  _421
REMARK  169  A    between atoms: _424  and  _426
REMARK  170  A    between atoms: _426  and  _427
REMARK  171  A    between atoms: _426  and  _429
REMARK  172  A    between atoms: _429  and  _430
REMARK  173  A    between atoms: _432  and  _434
REMARK  174  A    between atoms: _434  and  _435
REMARK  175  A    between atoms: _437  and  _439
REMARK  176  A    between atoms: _439  and  _440
REMARK  177  A    between atoms: _439  and  _442
REMARK  178  A    between atoms: _442  and  _443
REMARK  179  A    between atoms: _446  and  _448
REMARK  180  A    between atoms: _448  and  _449
REMARK  181  A    between atoms: _448  and  _451
REMARK  182  A    between atoms: _451  and  _452
REMARK  183  A    between atoms: _454  and  _456
REMARK  184  A    between atoms: _456  and  _457
REMARK  185  A    between atoms: _460  and  _462
REMARK  186  A    between atoms: _462  and  _463
REMARK  187  A    between atoms: _462  and  _465
REMARK  188  A    between atoms: _465  and  _466
REMARK  189  A    between atoms: _469  and  _471
REMARK  190  A    between atoms: _471  and  _472
REMARK  191  A    between atoms: _471  and  _474
REMARK  192  A    between atoms: _474  and  _475
REMARK  193  A    between atoms: _478  and  _480
REMARK  194  A    between atoms: _480  and  _481
REMARK  195  A    between atoms: _480  and  _483
REMARK  196  A    between atoms: _487  and  _488
REMARK  197  A    between atoms: _493  and  _495
REMARK  198  A    between atoms: _495  and  _496
REMARK  199  A    between atoms: _495  and  _498
REMARK  200  A    between atoms: _498  and  _499
REMARK  201  A    between atoms: _504  and  _506
REMARK  202  A    between atoms: _506  and  _507
REMARK  203  A    between atoms: _506  and  _509
REMARK  204  A    between atoms: _509  and  _510
REMARK  205  A    between atoms: _513  and  _515
REMARK  206  A    between atoms: _515  and  _516
REMARK  207  A    between atoms: _515  and  _518
REMARK  208  A    between atoms: _518  and  _519
REMARK  209  A    between atoms: _522  and  _524
REMARK  210  A    between atoms: _524  and  _525
REMARK  211  A    between atoms: _524  and  _527
REMARK  212  A    between atoms: _527  and  _528
REMARK  213  A    between atoms: _531  and  _533
REMARK  214  A    between atoms: _533  and  _534
REMARK  215  A    between atoms: _533  and  _536
REMARK  216  A    between atoms: _536  and  _537
REMARK  217  A    between atoms: _543  and  _545
REMARK  218  A    between atoms: _545  and  _546
REMARK  219  A    between atoms: _545  and  _548
REMARK  220  A    between atoms: _548  and  _549
REMARK  221  A    between atoms: _552  and  _554
REMARK  222  A    between atoms: _554  and  _555
REMARK  223  A    between atoms: _554  and  _557
REMARK  224  A    between atoms: _557  and  _558
REMARK  225  A    between atoms: _564  and  _566
REMARK  226  A    between atoms: _566  and  _567
REMARK  227  A    between atoms: _566  and  _569
REMARK  228  A    between atoms: _569  and  _570
REMARK  229  A    between atoms: _573  and  _575
REMARK  230  A    between atoms: _575  and  _576
REMARK  231  A    between atoms: _575  and  _578
REMARK  232  A    between atoms: _578  and  _579
REMARK  233  A    between atoms: _582  and  _584
REMARK  234  A    between atoms: _584  and  _585
REMARK  235  A    between atoms: _587  and  _589
REMARK  236  A    between atoms: _589  and  _590
REMARK  237  A    between atoms: _589  and  _592
REMARK  238  A    between atoms: _592  and  _593
REMARK                            x       y       z     vdW  Elec       q    Type
REMARK                         _______ _______ _______ _____ _____    ______ ____
ROOT
ATOM      1  O   HOH     1      43.453  32.709  12.844  0.00  0.00    +0.000 OA
ENDROOT
TORSDOF 0
REMARK  Name = ../refined-set-2016/1lee/1lee_pocket.pdb
REMARK  238 active torsions:
REMARK  status: ('A' for Active; 'I' for Inactive)
REMARK    1  A    between atoms: _1  and  _3
REMARK    2  A    between atoms: _3  and  _4
REMARK    3  A    between atoms: _3  and  _6
REMARK    4  A    between atoms: _6  and  _7
REMARK    5  A    between atoms: _10  and  _12
REMARK    6  A    between atoms: _12  and  _13
REMARK    7  A    between atoms: _12  and  _15
REMARK    8  A    between atoms: _16  and  _17
REMARK    9  A    between atoms: _19  and  _21
REMARK   10  A    between atoms: _21  and  _22
REMARK   11  A    between atoms: _21  and  _24
REMARK   12  A    between atoms: _24  and  _25
REMARK   13  A    between atoms: _30  and  _31
REMARK   14  A    between atoms: _33  and  _35
REMARK   15  A    between atoms: _35  and  _36
REMARK   16  A    between atoms: _35  and  _38
REMARK   17  A    between atoms: _38  and  _39
REMARK   18  A    between atoms: _42  and  _44
REMARK   19  A    between atoms: _44  and  _45
REMARK   20  A    between atoms: _44  and  _47
REMARK   21  A    between atoms: _47  and  _48
REMARK   22  A    between atoms: _51  and  _53
REMARK   23  A    between atoms: _53  and  _54
REMARK   24  A    between atoms: _53  and  _56
REMARK   25  A    between atoms: _56  and  _57
REMARK   26  A    between atoms: _60  and  _62
REMARK   27  A    between atoms: _62  and  _63
REMARK   28  A    between atoms: _62  and  _65
REMARK   29  A    between atoms: _65  and  _66
REMARK   30  A    between atoms: _69  and  _71
REMARK   31  A    between atoms: _71  and  _72
REMARK   32  A    between atoms: _74  and  _76
REMARK   33  A    between atoms: _76  and  _77
REMARK   34  A    between atoms: _76  and  _79
REMARK   35  A    between atoms: _79  and  _80
REMARK   36  A    between atoms: _82  and  _84
REMARK   37  A    between atoms: _84  and  _85
REMARK   38  A    between atoms: _88  and  _90
REMARK   39  A    between atoms: _90  and  _91
REMARK   40  A    between atoms: _90  and  _93
REMARK   41  A    between atoms: _93  and  _94
REMARK   42  A    between atoms: _99  and  _101
REMARK   43  A    between atoms: _101  and  _102
REMARK   44  A    between atoms: _101  and  _104
REMARK   45  A    between atoms: _104  and  _105
REMARK   46  A    between atoms: _115  and  _117
REMARK   47  A    between atoms: _117  and  _118
REMARK   48  A    between atoms: _117  and  _120
REMARK   49  A    between atoms: _123  and  _125
REMARK   50  A    between atoms: _125  and  _126
REMARK   51  A    between atoms: _125  and  _128
REMARK   52  A    between atoms: _128  and  _129
REMARK   53  A    between atoms: _129  and  _130
REMARK   54  A    between atoms: _133  and  _135
REMARK   55  A    between atoms: _135  and  _136
REMARK   56  A    between atoms: _135  and  _138
REMARK   57  A    between atoms: _138  and  _139
REMARK   58  A    between atoms: _139  and  _140
REMARK   59  A    between atoms: _142  and  _144
REMARK   60  A    between atoms: _144  and  _145
REMARK   61  A    between atoms: _144  and  _147
REMARK   62  A    between atoms: _147  and  _148
REMARK   63  A    between atoms: _153  and  _155
REMARK   64  A    between atoms: _155  and  _156
REMARK   65  A    between atoms: _155  and  _158
REMARK   66  A    between atoms: _158  and  _159
REMARK   67  A    between atoms: _164  and  _165
REMARK   68  A    between atoms: _167  and  _169
REMARK   69  A    between atoms: _169  and  _170
REMARK   70  A    between atoms: _169  and  _172
REMARK   71  A    between atoms: _175  and  _177
REMARK   72  A    between atoms: _177  and  _178
REMARK   73  A    between atoms: _177  and  _180
REMARK   74  A    between atoms: _180  and  _181
REMARK   75  A    between atoms: _183  and  _185
REMARK   76  A    between atoms: _185  and  _186
REMARK   77  A    between atoms: _188  and  _190
REMARK   78  A    between atoms: _190  and  _191
REMARK   79  A    between atoms: _190  and  _193
REMARK   80  A    between atoms: _193  and  _194
REMARK   81  A    between atoms: _197  and  _199
REMARK   82  A    between atoms: _199  and  _200
REMARK   83  A    between atoms: _199  and  _202
REMARK   84  A    between atoms: _205  and  _207
REMARK   85  A    between atoms: _207  and  _208
REMARK   86  A    between atoms: _207  and  _210
REMARK   87  A    between atoms: _210  and  _211
REMARK   88  A    between atoms: _217  and  _219
REMARK   89  A    between atoms: _219  and  _220
REMARK   90  A    between atoms: _219  and  _222
REMARK   91  A    between atoms: _222  and  _223
REMARK   92  A    between atoms: _226  and  _228
REMARK   93  A    between atoms: _228  and  _229
REMARK   94  A    between atoms: _228  and  _231
REMARK   95  A    between atoms: _231  and  _232
REMARK   96  A    between atoms: _237  and  _238
REMARK   97  A    between atoms: _240  and  _242
REMARK   98  A    between atoms: _242  and  _243
REMARK   99  A    between atoms: _242  and  _245
REMARK  100  A    between atoms: _245  and  _246
REMARK  101  A    between atoms: _248  and  _250
REMARK  102  A    between atoms: _250  and  _251
REMARK  103  A    between atoms: _250  and  _253
REMARK  104  A    between atoms: _253  and  _254
REMARK  105  A    between atoms: _260  and  _262
REMARK  106  A    between atoms: _262  and  _263
REMARK  107  A    between atoms: _265  and  _267
REMARK  108  A    between atoms: _267  and  _268
REMARK  109  A    between atoms: _267  and  _270
REMARK  110  A    between atoms: _270  and  _271
REMARK  111  A    between atoms: _274  and  _276
REMARK  112  A    between atoms: _276  and  _277
REMARK  113  A    between atoms: _276  and  _279
REMARK  114  A    between atoms: _279  and  _280
REMARK  115  A    between atoms: _283  and  _285
REMARK  116  A    between atoms: _285  and  _286
REMARK  117  A    between atoms: _285  and  _288
REMARK  118  A    between atoms: _288  and  _289
REMARK  119  A    between atoms: _292  and  _294
REMARK  120  A    between atoms: _294  and  _295
REMARK  121  A    between atoms: _297  and  _299
REMARK  122  A    between atoms: _299  and  _300
REMARK  123  A    between atoms: _299  and  _302
REMARK  124  A    between atoms: _302  and  _303
REMARK  125  A    between atoms: _313  and  _315
REMARK  126  A    between atoms: _315  and  _316
REMARK  127  A    between atoms: _315  and  _318
REMARK  128  A    between atoms: _318  and  _319
REMARK  129  A    between atoms: _322  and  _324
REMARK  130  A    between atoms: _324  and  _325
REMARK  131  A    between atoms: _324  and  _327
REMARK  132  A    between atoms: _327  and  _328
REMARK  133  A    between atoms: _331  and  _333
REMARK  134  A    between atoms: _333  and  _334
REMARK  135  A    between atoms: _333  and  _336
REMARK  136  A    between atoms: _336  and  _337
REMARK  137  A    between atoms: _339  and  _341
REMARK  138  A    between atoms: _341  and  _342
REMARK  139  A    between atoms: _341  and  _344
REMARK  140  A    between atoms: _344  and  _345
REMARK  141  A    between atoms: _348  and  _350
REMARK  142  A    between atoms: _350  and  _351
REMARK  143  A    between atoms: _350  and  _353
REMARK  144  A    between atoms: _353  and  _354
REMARK  145  A    between atoms: _357  and  _359
REMARK  146  A    between atoms: _359  and  _360
REMARK  147  A    between atoms: _359  and  _362
REMARK  148  A    between atoms: _362  and  _363
REMARK  149  A    between atoms: _368  and  _369
REMARK  150  A    between atoms: _371  and  _373
REMARK  151  A    between atoms: _373  and  _374
REMARK  152  A    between atoms: _373  and  _376
REMARK  153  A    between atoms: _376  and  _377
REMARK  154  A    between atoms: _387  and  _389
REMARK  155  A    between atoms: _389  and  _390
REMARK  156  A    between atoms: _389  and  _392
REMARK  157  A    between atoms: _392  and  _393
REMARK  158  A    between atoms: _398  and  _400
REMARK  159  A    between atoms: _400  and  _401
REMARK  160  A    between atoms: _400  and  _403
REMARK  161  A    between atoms: _403  and  _404
REMARK  162  A    between atoms: _407  and  _409
REMARK  163  A    between atoms: _409  and  _410
REMARK  164  A    between atoms: _409  and  _412
REMARK  165  A    between atoms: _415  and  _417
REMARK  166  A    between atoms: _417  and  _418
REMARK  167  A    between atoms: _417  and  _420
REMARK  168  A    between atoms: _420  and  _421
REMARK  169  A    between atoms: _424  and  _426
REMARK  170  A    between atoms: _426  and  _427
REMARK  171  A    between atoms: _426  and  _429
REMARK  172  A    between atoms: _429  and  _430
REMARK  173  A    between atoms: _432  and  _434
REMARK  174  A    between atoms: _434  and  _435
REMARK  175  A    between atoms: _437  and  _439
REMARK  176  A    between atoms: _439  and  _440
REMARK  177  A    between atoms: _439  and  _442
REMARK  178  A    between atoms: _442  and  _443
REMARK  179  A    between atoms: _446  and  _448
REMARK  180  A    between atoms: _448  and  _449
REMARK  181  A    between atoms: _448  and  _451
REMARK  182  A    between atoms: _451  and  _452
REMARK  183  A    between atoms: _454  and  _456
REMARK  184  A    between atoms: _456  and  _457
REMARK  185  A    between atoms: _460  and  _462
REMARK  186  A    between atoms: _462  and  _463
REMARK  187  A    between atoms: _462  and  _465
REMARK  188  A    between atoms: _465  and  _466
REMARK  189  A    between atoms: _469  and  _471
REMARK  190  A    between atoms: _471  and  _472
REMARK  191  A    between atoms: _471  and  _474
REMARK  192  A    between atoms: _474  and  _475
REMARK  193  A    between atoms: _478  and  _480
REMARK  194  A    between atoms: _480  and  _481
REMARK  195  A    between atoms: _480  and  _483
REMARK  196  A    between atoms: _487  and  _488
REMARK  197  A    between atoms: _493  and  _495
REMARK  198  A    between atoms: _495  and  _496
REMARK  199  A    between atoms: _495  and  _498
REMARK  200  A    between atoms: _498  and  _499
REMARK  201  A    between atoms: _504  and  _506
REMARK  202  A    between atoms: _506  and  _507
REMARK  203  A    between atoms: _506  and  _509
REMARK  204  A    between atoms: _509  and  _510
REMARK  205  A    between atoms: _513  and  _515
REMARK  206  A    between atoms: _515  and  _516
REMARK  207  A    between atoms: _515  and  _518
REMARK  208  A    between atoms: _518  and  _519
REMARK  209  A    between atoms: _522  and  _524
REMARK  210  A    between atoms: _524  and  _525
REMARK  211  A    between atoms: _524  and  _527
REMARK  212  A    between atoms: _527  and  _528
REMARK  213  A    between atoms: _531  and  _533
REMARK  214  A    between atoms: _533  and  _534
REMARK  215  A    between atoms: _533  and  _536
REMARK  216  A    between atoms: _536  and  _537
REMARK  217  A    between atoms: _543  and  _545
REMARK  218  A    between atoms: _545  and  _546
REMARK  219  A    between atoms: _545  and  _548
REMARK  220  A    between atoms: _548  and  _549
REMARK  221  A    between atoms: _552  and  _554
REMARK  222  A    between atoms: _554  and  _555
REMARK  223  A    between atoms: _554  and  _557
REMARK  224  A    between atoms: _557  and  _558
REMARK  225  A    between atoms: _564  and  _566
REMARK  226  A    between atoms: _566  and  _567
REMARK  227  A    between atoms: _566  and  _569
REMARK  228  A    between atoms: _569  and  _570
REMARK  229  A    between atoms: _573  and  _575
REMARK  230  A    between atoms: _575  and  _576
REMARK  231  A    between atoms: _575  and  _578
REMARK  232  A    between atoms: _578  and  _579
REMARK  233  A    between atoms: _582  and  _584
REMARK  234  A    between atoms: _584  and  _585
REMARK  235  A    between atoms: _587  and  _589
REMARK  236  A    between atoms: _589  and  _590
REMARK  237  A    between atoms: _589  and  _592
REMARK  238  A    between atoms: _592  and  _593
REMARK                            x       y       z     vdW  Elec       q    Type
REMARK                         _______ _______ _______ _____ _____    ______ ____
ROOT
ATOM      1  O   HOH     1      27.087  34.698   2.445  0.00  0.00    +0.000 OA
ENDROOT
TORSDOF 0
REMARK  Name = ../refined-set-2016/1lee/1lee_pocket.pdb
REMARK  238 active torsions:
REMARK  status: ('A' for Active; 'I' for Inactive)
REMARK    1  A    between atoms: _1  and  _3
REMARK    2  A    between atoms: _3  and  _4
REMARK    3  A    between atoms: _3  and  _6
REMARK    4  A    between atoms: _6  and  _7
REMARK    5  A    between atoms: _10  and  _12
REMARK    6  A    between atoms: _12  and  _13
REMARK    7  A    between atoms: _12  and  _15
REMARK    8  A    between atoms: _16  and  _17
REMARK    9  A    between atoms: _19  and  _21
REMARK   10  A    between atoms: _21  and  _22
REMARK   11  A    between atoms: _21  and  _24
REMARK   12  A    between atoms: _24  and  _25
REMARK   13  A    between atoms: _30  and  _31
REMARK   14  A    between atoms: _33  and  _35
REMARK   15  A    between atoms: _35  and  _36
REMARK   16  A    between atoms: _35  and  _38
REMARK   17  A    between atoms: _38  and  _39
REMARK   18  A    between atoms: _42  and  _44
REMARK   19  A    between atoms: _44  and  _45
REMARK   20  A    between atoms: _44  and  _47
REMARK   21  A    between atoms: _47  and  _48
REMARK   22  A    between atoms: _51  and  _53
REMARK   23  A    between atoms: _53  and  _54
REMARK   24  A    between atoms: _53  and  _56
REMARK   25  A    between atoms: _56  and  _57
REMARK   26  A    between atoms: _60  and  _62
REMARK   27  A    between atoms: _62  and  _63
REMARK   28  A    between atoms: _62  and  _65
REMARK   29  A    between atoms: _65  and  _66
REMARK   30  A    between atoms: _69  and  _71
REMARK   31  A    between atoms: _71  and  _72
REMARK   32  A    between atoms: _74  and  _76
REMARK   33  A    between atoms: _76  and  _77
REMARK   34  A    between atoms: _76  and  _79
REMARK   35  A    between atoms: _79  and  _80
REMARK   36  A    between atoms: _82  and  _84
REMARK   37  A    between atoms: _84  and  _85
REMARK   38  A    between atoms: _88  and  _90
REMARK   39  A    between atoms: _90  and  _91
REMARK   40  A    between atoms: _90  and  _93
REMARK   41  A    between atoms: _93  and  _94
REMARK   42  A    between atoms: _99  and  _101
REMARK   43  A    between atoms: _101  and  _102
REMARK   44  A    between atoms: _101  and  _104
REMARK   45  A    between atoms: _104  and  _105
REMARK   46  A    between atoms: _115  and  _117
REMARK   47  A    between atoms: _117  and  _118
REMARK   48  A    between atoms: _117  and  _120
REMARK   49  A    between atoms: _123  and  _125
REMARK   50  A    between atoms: _125  and  _126
REMARK   51  A    between atoms: _125  and  _128
REMARK   52  A    between atoms: _128  and  _129
REMARK   53  A    between atoms: _129  and  _130
REMARK   54  A    between atoms: _133  and  _135
REMARK   55  A    between atoms: _135  and  _136
REMARK   56  A    between atoms: _135  and  _138
REMARK   57  A    between atoms: _138  and  _139
REMARK   58  A    between atoms: _139  and  _140
REMARK   59  A    between atoms: _142  and  _144
REMARK   60  A    between atoms: _144  and  _145
REMARK   61  A    between atoms: _144  and  _147
REMARK   62  A    between atoms: _147  and  _148
REMARK   63  A    between atoms: _153  and  _155
REMARK   64  A    between atoms: _155  and  _156
REMARK   65  A    between atoms: _155  and  _158
REMARK   66  A    between atoms: _158  and  _159
REMARK   67  A    between atoms: _164  and  _165
REMARK   68  A    between atoms: _167  and  _169
REMARK   69  A    between atoms: _169  and  _170
REMARK   70  A    between atoms: _169  and  _172
REMARK   71  A    between atoms: _175  and  _177
REMARK   72  A    between atoms: _177  and  _178
REMARK   73  A    between atoms: _177  and  _180
REMARK   74  A    between atoms: _180  and  _181
REMARK   75  A    between atoms: _183  and  _185
REMARK   76  A    between atoms: _185  and  _186
REMARK   77  A    between atoms: _188  and  _190
REMARK   78  A    between atoms: _190  and  _191
REMARK   79  A    between atoms: _190  and  _193
REMARK   80  A    between atoms: _193  and  _194
REMARK   81  A    between atoms: _197  and  _199
REMARK   82  A    between atoms: _199  and  _200
REMARK   83  A    between atoms: _199  and  _202
REMARK   84  A    between atoms: _205  and  _207
REMARK   85  A    between atoms: _207  and  _208
REMARK   86  A    between atoms: _207  and  _210
REMARK   87  A    between atoms: _210  and  _211
REMARK   88  A    between atoms: _217  and  _219
REMARK   89  A    between atoms: _219  and  _220
REMARK   90  A    between atoms: _219  and  _222
REMARK   91  A    between atoms: _222  and  _223
REMARK   92  A    between atoms: _226  and  _228
REMARK   93  A    between atoms: _228  and  _229
REMARK   94  A    between atoms: _228  and  _231
REMARK   95  A    between atoms: _231  and  _232
REMARK   96  A    between atoms: _237  and  _238
REMARK   97  A    between atoms: _240  and  _242
REMARK   98  A    between atoms: _242  and  _243
REMARK   99  A    between atoms: _242  and  _245
REMARK  100  A    between atoms: _245  and  _246
REMARK  101  A    between atoms: _248  and  _250
REMARK  102  A    between atoms: _250  and  _251
REMARK  103  A    between atoms: _250  and  _253
REMARK  104  A    between atoms: _253  and  _254
REMARK  105  A    between atoms: _260  and  _262
REMARK  106  A    between atoms: _262  and  _263
REMARK  107  A    between atoms: _265  and  _267
REMARK  108  A    between atoms: _267  and  _268
REMARK  109  A    between atoms: _267  and  _270
REMARK  110  A    between atoms: _270  and  _271
REMARK  111  A    between atoms: _274  and  _276
REMARK  112  A    between atoms: _276  and  _277
REMARK  113  A    between atoms: _276  and  _279
REMARK  114  A    between atoms: _279  and  _280
REMARK  115  A    between atoms: _283  and  _285
REMARK  116  A    between atoms: _285  and  _286
REMARK  117  A    between atoms: _285  and  _288
REMARK  118  A    between atoms: _288  and  _289
REMARK  119  A    between atoms: _292  and  _294
REMARK  120  A    between atoms: _294  and  _295
REMARK  121  A    between atoms: _297  and  _299
REMARK  122  A    between atoms: _299  and  _300
REMARK  123  A    between atoms: _299  and  _302
REMARK  124  A    between atoms: _302  and  _303
REMARK  125  A    between atoms: _313  and  _315
REMARK  126  A    between atoms: _315  and  _316
REMARK  127  A    between atoms: _315  and  _318
REMARK  128  A    between atoms: _318  and  _319
REMARK  129  A    between atoms: _322  and  _324
REMARK  130  A    between atoms: _324  and  _325
REMARK  131  A    between atoms: _324  and  _327
REMARK  132  A    between atoms: _327  and  _328
REMARK  133  A    between atoms: _331  and  _333
REMARK  134  A    between atoms: _333  and  _334
REMARK  135  A    between atoms: _333  and  _336
REMARK  136  A    between atoms: _336  and  _337
REMARK  137  A    between atoms: _339  and  _341
REMARK  138  A    between atoms: _341  and  _342
REMARK  139  A    between atoms: _341  and  _344
REMARK  140  A    between atoms: _344  and  _345
REMARK  141  A    between atoms: _348  and  _350
REMARK  142  A    between atoms: _350  and  _351
REMARK  143  A    between atoms: _350  and  _353
REMARK  144  A    between atoms: _353  and  _354
REMARK  145  A    between atoms: _357  and  _359
REMARK  146  A    between atoms: _359  and  _360
REMARK  147  A    between atoms: _359  and  _362
REMARK  148  A    between atoms: _362  and  _363
REMARK  149  A    between atoms: _368  and  _369
REMARK  150  A    between atoms: _371  and  _373
REMARK  151  A    between atoms: _373  and  _374
REMARK  152  A    between atoms: _373  and  _376
REMARK  153  A    between atoms: _376  and  _377
REMARK  154  A    between atoms: _387  and  _389
REMARK  155  A    between atoms: _389  and  _390
REMARK  156  A    between atoms: _389  and  _392
REMARK  157  A    between atoms: _392  and  _393
REMARK  158  A    between atoms: _398  and  _400
REMARK  159  A    between atoms: _400  and  _401
REMARK  160  A    between atoms: _400  and  _403
REMARK  161  A    between atoms: _403  and  _404
REMARK  162  A    between atoms: _407  and  _409
REMARK  163  A    between atoms: _409  and  _410
REMARK  164  A    between atoms: _409  and  _412
REMARK  165  A    between atoms: _415  and  _417
REMARK  166  A    between atoms: _417  and  _418
REMARK  167  A    between atoms: _417  and  _420
REMARK  168  A    between atoms: _420  and  _421
REMARK  169  A    between atoms: _424  and  _426
REMARK  170  A    between atoms: _426  and  _427
REMARK  171  A    between atoms: _426  and  _429
REMARK  172  A    between atoms: _429  and  _430
REMARK  173  A    between atoms: _432  and  _434
REMARK  174  A    between atoms: _434  and  _435
REMARK  175  A    between atoms: _437  and  _439
REMARK  176  A    between atoms: _439  and  _440
REMARK  177  A    between atoms: _439  and  _442
REMARK  178  A    between atoms: _442  and  _443
REMARK  179  A    between atoms: _446  and  _448
REMARK  180  A    between atoms: _448  and  _449
REMARK  181  A    between atoms: _448  and  _451
REMARK  182  A    between atoms: _451  and  _452
REMARK  183  A    between atoms: _454  and  _456
REMARK  184  A    between atoms: _456  and  _457
REMARK  185  A    between atoms: _460  and  _462
REMARK  186  A    between atoms: _462  and  _463
REMARK  187  A    between atoms: _462  and  _465
REMARK  188  A    between atoms: _465  and  _466
REMARK  189  A    between atoms: _469  and  _471
REMARK  190  A    between atoms: _471  and  _472
REMARK  191  A    between atoms: _471  and  _474
REMARK  192  A    between atoms: _474  and  _475
REMARK  193  A    between atoms: _478  and  _480
REMARK  194  A    between atoms: _480  and  _481
REMARK  195  A    between atoms: _480  and  _483
REMARK  196  A    between atoms: _487  and  _488
REMARK  197  A    between atoms: _493  and  _495
REMARK  198  A    between atoms: _495  and  _496
REMARK  199  A    between atoms: _495  and  _498
REMARK  200  A    between atoms: _498  and  _499
REMARK  201  A    between atoms: _504  and  _506
REMARK  202  A    between atoms: _506  and  _507
REMARK  203  A    between atoms: _506  and  _509
REMARK  204  A    between atoms: _509  and  _510
REMARK  205  A    between atoms: _513  and  _515
REMARK  206  A    between atoms: _515  and  _516
REMARK  207  A    between atoms: _515  and  _518
REMARK  208  A    between atoms: _518  and  _519
REMARK  209  A    between atoms: _522  and  _524
REMARK  210  A    between atoms: _524  and  _525
REMARK  211  A    between atoms: _524  and  _527
REMARK  212  A    between atoms: _527  and  _528
REMARK  213  A    between atoms: _531  and  _533
REMARK  214  A    between atoms: _533  and  _534
REMARK  215  A    between atoms: _533  and  _536
REMARK  216  A    between atoms: _536  and  _537
REMARK  217  A    between atoms: _543  and  _545
REMARK  218  A    between atoms: _545  and  _546
REMARK  219  A    between atoms: _545  and  _548
REMARK  220  A    between atoms: _548  and  _549
REMARK  221  A    between atoms: _552  and  _554
REMARK  222  A    between atoms: _554  and  _555
REMARK  223  A    between atoms: _554  and  _557
REMARK  224  A    between atoms: _557  and  _558
REMARK  225  A    between atoms: _564  and  _566
REMARK  226  A    between atoms: _566  and  _567
REMARK  227  A    between atoms: _566  and  _569
REMARK  228  A    between atoms: _569  and  _570
REMARK  229  A    between atoms: _573  and  _575
REMARK  230  A    between atoms: _575  and  _576
REMARK  231  A    between atoms: _575  and  _578
REMARK  232  A    between atoms: _578  and  _579
REMARK  233  A    between atoms: _582  and  _584
REMARK  234  A    between atoms: _584  and  _585
REMARK  235  A    between atoms: _587  and  _589
REMARK  236  A    between atoms: _589  and  _590
REMARK  237  A    between atoms: _589  and  _592
REMARK  238  A    between atoms: _592  and  _593
REMARK                            x       y       z     vdW  Elec       q    Type
REMARK                         _______ _______ _______ _____ _____    ______ ____
ROOT
ATOM      1  O   HOH     1      31.977  40.228  11.448  0.00  0.00    +0.000 OA
ENDROOT
TORSDOF 0
REMARK  Name = ../refined-set-2016/1lee/1lee_pocket.pdb
REMARK  238 active torsions:
REMARK  status: ('A' for Active; 'I' for Inactive)
REMARK    1  A    between atoms: _1  and  _3
REMARK    2  A    between atoms: _3  and  _4
REMARK    3  A    between atoms: _3  and  _6
REMARK    4  A    between atoms: _6  and  _7
REMARK    5  A    between atoms: _10  and  _12
REMARK    6  A    between atoms: _12  and  _13
REMARK    7  A    between atoms: _12  and  _15
REMARK    8  A    between atoms: _16  and  _17
REMARK    9  A    between atoms: _19  and  _21
REMARK   10  A    between atoms: _21  and  _22
REMARK   11  A    between atoms: _21  and  _24
REMARK   12  A    between atoms: _24  and  _25
REMARK   13  A    between atoms: _30  and  _31
REMARK   14  A    between atoms: _33  and  _35
REMARK   15  A    between atoms: _35  and  _36
REMARK   16  A    between atoms: _35  and  _38
REMARK   17  A    between atoms: _38  and  _39
REMARK   18  A    between atoms: _42  and  _44
REMARK   19  A    between atoms: _44  and  _45
REMARK   20  A    between atoms: _44  and  _47
REMARK   21  A    between atoms: _47  and  _48
REMARK   22  A    between atoms: _51  and  _53
REMARK   23  A    between atoms: _53  and  _54
REMARK   24  A    between atoms: _53  and  _56
REMARK   25  A    between atoms: _56  and  _57
REMARK   26  A    between atoms: _60  and  _62
REMARK   27  A    between atoms: _62  and  _63
REMARK   28  A    between atoms: _62  and  _65
REMARK   29  A    between atoms: _65  and  _66
REMARK   30  A    between atoms: _69  and  _71
REMARK   31  A    between atoms: _71  and  _72
REMARK   32  A    between atoms: _74  and  _76
REMARK   33  A    between atoms: _76  and  _77
REMARK   34  A    between atoms: _76  and  _79
REMARK   35  A    between atoms: _79  and  _80
REMARK   36  A    between atoms: _82  and  _84
REMARK   37  A    between atoms: _84  and  _85
REMARK   38  A    between atoms: _88  and  _90
REMARK   39  A    between atoms: _90  and  _91
REMARK   40  A    between atoms: _90  and  _93
REMARK   41  A    between atoms: _93  and  _94
REMARK   42  A    between atoms: _99  and  _101
REMARK   43  A    between atoms: _101  and  _102
REMARK   44  A    between atoms: _101  and  _104
REMARK   45  A    between atoms: _104  and  _105
REMARK   46  A    between atoms: _115  and  _117
REMARK   47  A    between atoms: _117  and  _118
REMARK   48  A    between atoms: _117  and  _120
REMARK   49  A    between atoms: _123  and  _125
REMARK   50  A    between atoms: _125  and  _126
REMARK   51  A    between atoms: _125  and  _128
REMARK   52  A    between atoms: _128  and  _129
REMARK   53  A    between atoms: _129  and  _130
REMARK   54  A    between atoms: _133  and  _135
REMARK   55  A    between atoms: _135  and  _136
REMARK   56  A    between atoms: _135  and  _138
REMARK   57  A    between atoms: _138  and  _139
REMARK   58  A    between atoms: _139  and  _140
REMARK   59  A    between atoms: _142  and  _144
REMARK   60  A    between atoms: _144  and  _145
REMARK   61  A    between atoms: _144  and  _147
REMARK   62  A    between atoms: _147  and  _148
REMARK   63  A    between atoms: _153  and  _155
REMARK   64  A    between atoms: _155  and  _156
REMARK   65  A    between atoms: _155  and  _158
REMARK   66  A    between atoms: _158  and  _159
REMARK   67  A    between atoms: _164  and  _165
REMARK   68  A    between atoms: _167  and  _169
REMARK   69  A    between atoms: _169  and  _170
REMARK   70  A    between atoms: _169  and  _172
REMARK   71  A    between atoms: _175  and  _177
REMARK   72  A    between atoms: _177  and  _178
REMARK   73  A    between atoms: _177  and  _180
REMARK   74  A    between atoms: _180  and  _181
REMARK   75  A    between atoms: _183  and  _185
REMARK   76  A    between atoms: _185  and  _186
REMARK   77  A    between atoms: _188  and  _190
REMARK   78  A    between atoms: _190  and  _191
REMARK   79  A    between atoms: _190  and  _193
REMARK   80  A    between atoms: _193  and  _194
REMARK   81  A    between atoms: _197  and  _199
REMARK   82  A    between atoms: _199  and  _200
REMARK   83  A    between atoms: _199  and  _202
REMARK   84  A    between atoms: _205  and  _207
REMARK   85  A    between atoms: _207  and  _208
REMARK   86  A    between atoms: _207  and  _210
REMARK   87  A    between atoms: _210  and  _211
REMARK   88  A    between atoms: _217  and  _219
REMARK   89  A    between atoms: _219  and  _220
REMARK   90  A    between atoms: _219  and  _222
REMARK   91  A    between atoms: _222  and  _223
REMARK   92  A    between atoms: _226  and  _228
REMARK   93  A    between atoms: _228  and  _229
REMARK   94  A    between atoms: _228  and  _231
REMARK   95  A    between atoms: _231  and  _232
REMARK   96  A    between atoms: _237  and  _238
REMARK   97  A    between atoms: _240  and  _242
REMARK   98  A    between atoms: _242  and  _243
REMARK   99  A    between atoms: _242  and  _245
REMARK  100  A    between atoms: _245  and  _246
REMARK  101  A    between atoms: _248  and  _250
REMARK  102  A    between atoms: _250  and  _251
REMARK  103  A    between atoms: _250  and  _253
REMARK  104  A    between atoms: _253  and  _254
REMARK  105  A    between atoms: _260  and  _262
REMARK  106  A    between atoms: _262  and  _263
REMARK  107  A    between atoms: _265  and  _267
REMARK  108  A    between atoms: _267  and  _268
REMARK  109  A    between atoms: _267  and  _270
REMARK  110  A    between atoms: _270  and  _271
REMARK  111  A    between atoms: _274  and  _276
REMARK  112  A    between atoms: _276  and  _277
REMARK  113  A    between atoms: _276  and  _279
REMARK  114  A    between atoms: _279  and  _280
REMARK  115  A    between atoms: _283  and  _285
REMARK  116  A    between atoms: _285  and  _286
REMARK  117  A    between atoms: _285  and  _288
REMARK  118  A    between atoms: _288  and  _289
REMARK  119  A    between atoms: _292  and  _294
REMARK  120  A    between atoms: _294  and  _295
REMARK  121  A    between atoms: _297  and  _299
REMARK  122  A    between atoms: _299  and  _300
REMARK  123  A    between atoms: _299  and  _302
REMARK  124  A    between atoms: _302  and  _303
REMARK  125  A    between atoms: _313  and  _315
REMARK  126  A    between atoms: _315  and  _316
REMARK  127  A    between atoms: _315  and  _318
REMARK  128  A    between atoms: _318  and  _319
REMARK  129  A    between atoms: _322  and  _324
REMARK  130  A    between atoms: _324  and  _325
REMARK  131  A    between atoms: _324  and  _327
REMARK  132  A    between atoms: _327  and  _328
REMARK  133  A    between atoms: _331  and  _333
REMARK  134  A    between atoms: _333  and  _334
REMARK  135  A    between atoms: _333  and  _336
REMARK  136  A    between atoms: _336  and  _337
REMARK  137  A    between atoms: _339  and  _341
REMARK  138  A    between atoms: _341  and  _342
REMARK  139  A    between atoms: _341  and  _344
REMARK  140  A    between atoms: _344  and  _345
REMARK  141  A    between atoms: _348  and  _350
REMARK  142  A    between atoms: _350  and  _351
REMARK  143  A    between atoms: _350  and  _353
REMARK  144  A    between atoms: _353  and  _354
REMARK  145  A    between atoms: _357  and  _359
REMARK  146  A    between atoms: _359  and  _360
REMARK  147  A    between atoms: _359  and  _362
REMARK  148  A    between atoms: _362  and  _363
REMARK  149  A    between atoms: _368  and  _369
REMARK  150  A    between atoms: _371  and  _373
REMARK  151  A    between atoms: _373  and  _374
REMARK  152  A    between atoms: _373  and  _376
REMARK  153  A    between atoms: _376  and  _377
REMARK  154  A    between atoms: _387  and  _389
REMARK  155  A    between atoms: _389  and  _390
REMARK  156  A    between atoms: _389  and  _392
REMARK  157  A    between atoms: _392  and  _393
REMARK  158  A    between atoms: _398  and  _400
REMARK  159  A    between atoms: _400  and  _401
REMARK  160  A    between atoms: _400  and  _403
REMARK  161  A    between atoms: _403  and  _404
REMARK  162  A    between atoms: _407  and  _409
REMARK  163  A    between atoms: _409  and  _410
REMARK  164  A    between atoms: _409  and  _412
REMARK  165  A    between atoms: _415  and  _417
REMARK  166  A    between atoms: _417  and  _418
REMARK  167  A    between atoms: _417  and  _420
REMARK  168  A    between atoms: _420  and  _421
REMARK  169  A    between atoms: _424  and  _426
REMARK  170  A    between atoms: _426  and  _427
REMARK  171  A    between atoms: _426  and  _429
REMARK  172  A    between atoms: _429  and  _430
REMARK  173  A    between atoms: _432  and  _434
REMARK  174  A    between atoms: _434  and  _435
REMARK  175  A    between atoms: _437  and  _439
REMARK  176  A    between atoms: _439  and  _440
REMARK  177  A    between atoms: _439  and  _442
REMARK  178  A    between atoms: _442  and  _443
REMARK  179  A    between atoms: _446  and  _448
REMARK  180  A    between atoms: _448  and  _449
REMARK  181  A    between atoms: _448  and  _451
REMARK  182  A    between atoms: _451  and  _452
REMARK  183  A    between atoms: _454  and  _456
REMARK  184  A    between atoms: _456  and  _457
REMARK  185  A    between atoms: _460  and  _462
REMARK  186  A    between atoms: _462  and  _463
REMARK  187  A    between atoms: _462  and  _465
REMARK  188  A    between atoms: _465  and  _466
REMARK  189  A    between atoms: _469  and  _471
REMARK  190  A    between atoms: _471  and  _472
REMARK  191  A    between atoms: _471  and  _474
REMARK  192  A    between atoms: _474  and  _475
REMARK  193  A    between atoms: _478  and  _480
REMARK  194  A    between atoms: _480  and  _481
REMARK  195  A    between atoms: _480  and  _483
REMARK  196  A    between atoms: _487  and  _488
REMARK  197  A    between atoms: _493  and  _495
REMARK  198  A    between atoms: _495  and  _496
REMARK  199  A    between atoms: _495  and  _498
REMARK  200  A    between atoms: _498  and  _499
REMARK  201  A    between atoms: _504  and  _506
REMARK  202  A    between atoms: _506  and  _507
REMARK  203  A    between atoms: _506  and  _509
REMARK  204  A    between atoms: _509  and  _510
REMARK  205  A    between atoms: _513  and  _515
REMARK  206  A    between atoms: _515  and  _516
REMARK  207  A    between atoms: _515  and  _518
REMARK  208  A    between atoms: _518  and  _519
REMARK  209  A    between atoms: _522  and  _524
REMARK  210  A    between atoms: _524  and  _525
REMARK  211  A    between atoms: _524  and  _527
REMARK  212  A    between atoms: _527  and  _528
REMARK  213  A    between atoms: _531  and  _533
REMARK  214  A    between atoms: _533  and  _534
REMARK  215  A    between atoms: _533  and  _536
REMARK  216  A    between atoms: _536  and  _537
REMARK  217  A    between atoms: _543  and  _545
REMARK  218  A    between atoms: _545  and  _546
REMARK  219  A    between atoms: _545  and  _548
REMARK  220  A    between atoms: _548  and  _549
REMARK  221  A    between atoms: _552  and  _554
REMARK  222  A    between atoms: _554  and  _555
REMARK  223  A    between atoms: _554  and  _557
REMARK  224  A    between atoms: _557  and  _558
REMARK  225  A    between atoms: _564  and  _566
REMARK  226  A    between atoms: _566  and  _567
REMARK  227  A    between atoms: _566  and  _569
REMARK  228  A    between atoms: _569  and  _570
REMARK  229  A    between atoms: _573  and  _575
REMARK  230  A    between atoms: _575  and  _576
REMARK  231  A    between atoms: _575  and  _578
REMARK  232  A    between atoms: _578  and  _579
REMARK  233  A    between atoms: _582  and  _584
REMARK  234  A    between atoms: _584  and  _585
REMARK  235  A    between atoms: _587  and  _589
REMARK  236  A    between atoms: _589  and  _590
REMARK  237  A    between atoms: _589  and  _592
REMARK  238  A    between atoms: _592  and  _593
REMARK                            x       y       z     vdW  Elec       q    Type
REMARK                         _______ _______ _______ _____ _____    ______ ____
ROOT
ATOM      1  O   HOH     1      40.247  41.236  10.108  0.00  0.00    +0.000 OA
ENDROOT
TORSDOF 0
REMARK  Name = ../refined-set-2016/1lee/1lee_pocket.pdb
REMARK  238 active torsions:
REMARK  status: ('A' for Active; 'I' for Inactive)
REMARK    1  A    between atoms: _1  and  _3
REMARK    2  A    between atoms: _3  and  _4
REMARK    3  A    between atoms: _3  and  _6
REMARK    4  A    between atoms: _6  and  _7
REMARK    5  A    between atoms: _10  and  _12
REMARK    6  A    between atoms: _12  and  _13
REMARK    7  A    between atoms: _12  and  _15
REMARK    8  A    between atoms: _16  and  _17
REMARK    9  A    between atoms: _19  and  _21
REMARK   10  A    between atoms: _21  and  _22
REMARK   11  A    between atoms: _21  and  _24
REMARK   12  A    between atoms: _24  and  _25
REMARK   13  A    between atoms: _30  and  _31
REMARK   14  A    between atoms: _33  and  _35
REMARK   15  A    between atoms: _35  and  _36
REMARK   16  A    between atoms: _35  and  _38
REMARK   17  A    between atoms: _38  and  _39
REMARK   18  A    between atoms: _42  and  _44
REMARK   19  A    between atoms: _44  and  _45
REMARK   20  A    between atoms: _44  and  _47
REMARK   21  A    between atoms: _47  and  _48
REMARK   22  A    between atoms: _51  and  _53
REMARK   23  A    between atoms: _53  and  _54
REMARK   24  A    between atoms: _53  and  _56
REMARK   25  A    between atoms: _56  and  _57
REMARK   26  A    between atoms: _60  and  _62
REMARK   27  A    between atoms: _62  and  _63
REMARK   28  A    between atoms: _62  and  _65
REMARK   29  A    between atoms: _65  and  _66
REMARK   30  A    between atoms: _69  and  _71
REMARK   31  A    between atoms: _71  and  _72
REMARK   32  A    between atoms: _74  and  _76
REMARK   33  A    between atoms: _76  and  _77
REMARK   34  A    between atoms: _76  and  _79
REMARK   35  A    between atoms: _79  and  _80
REMARK   36  A    between atoms: _82  and  _84
REMARK   37  A    between atoms: _84  and  _85
REMARK   38  A    between atoms: _88  and  _90
REMARK   39  A    between atoms: _90  and  _91
REMARK   40  A    between atoms: _90  and  _93
REMARK   41  A    between atoms: _93  and  _94
REMARK   42  A    between atoms: _99  and  _101
REMARK   43  A    between atoms: _101  and  _102
REMARK   44  A    between atoms: _101  and  _104
REMARK   45  A    between atoms: _104  and  _105
REMARK   46  A    between atoms: _115  and  _117
REMARK   47  A    between atoms: _117  and  _118
REMARK   48  A    between atoms: _117  and  _120
REMARK   49  A    between atoms: _123  and  _125
REMARK   50  A    between atoms: _125  and  _126
REMARK   51  A    between atoms: _125  and  _128
REMARK   52  A    between atoms: _128  and  _129
REMARK   53  A    between atoms: _129  and  _130
REMARK   54  A    between atoms: _133  and  _135
REMARK   55  A    between atoms: _135  and  _136
REMARK   56  A    between atoms: _135  and  _138
REMARK   57  A    between atoms: _138  and  _139
REMARK   58  A    between atoms: _139  and  _140
REMARK   59  A    between atoms: _142  and  _144
REMARK   60  A    between atoms: _144  and  _145
REMARK   61  A    between atoms: _144  and  _147
REMARK   62  A    between atoms: _147  and  _148
REMARK   63  A    between atoms: _153  and  _155
REMARK   64  A    between atoms: _155  and  _156
REMARK   65  A    between atoms: _155  and  _158
REMARK   66  A    between atoms: _158  and  _159
REMARK   67  A    between atoms: _164  and  _165
REMARK   68  A    between atoms: _167  and  _169
REMARK   69  A    between atoms: _169  and  _170
REMARK   70  A    between atoms: _169  and  _172
REMARK   71  A    between atoms: _175  and  _177
REMARK   72  A    between atoms: _177  and  _178
REMARK   73  A    between atoms: _177  and  _180
REMARK   74  A    between atoms: _180  and  _181
REMARK   75  A    between atoms: _183  and  _185
REMARK   76  A    between atoms: _185  and  _186
REMARK   77  A    between atoms: _188  and  _190
REMARK   78  A    between atoms: _190  and  _191
REMARK   79  A    between atoms: _190  and  _193
REMARK   80  A    between atoms: _193  and  _194
REMARK   81  A    between atoms: _197  and  _199
REMARK   82  A    between atoms: _199  and  _200
REMARK   83  A    between atoms: _199  and  _202
REMARK   84  A    between atoms: _205  and  _207
REMARK   85  A    between atoms: _207  and  _208
REMARK   86  A    between atoms: _207  and  _210
REMARK   87  A    between atoms: _210  and  _211
REMARK   88  A    between atoms: _217  and  _219
REMARK   89  A    between atoms: _219  and  _220
REMARK   90  A    between atoms: _219  and  _222
REMARK   91  A    between atoms: _222  and  _223
REMARK   92  A    between atoms: _226  and  _228
REMARK   93  A    between atoms: _228  and  _229
REMARK   94  A    between atoms: _228  and  _231
REMARK   95  A    between atoms: _231  and  _232
REMARK   96  A    between atoms: _237  and  _238
REMARK   97  A    between atoms: _240  and  _242
REMARK   98  A    between atoms: _242  and  _243
REMARK   99  A    between atoms: _242  and  _245
REMARK  100  A    between atoms: _245  and  _246
REMARK  101  A    between atoms: _248  and  _250
REMARK  102  A    between atoms: _250  and  _251
REMARK  103  A    between atoms: _250  and  _253
REMARK  104  A    between atoms: _253  and  _254
REMARK  105  A    between atoms: _260  and  _262
REMARK  106  A    between atoms: _262  and  _263
REMARK  107  A    between atoms: _265  and  _267
REMARK  108  A    between atoms: _267  and  _268
REMARK  109  A    between atoms: _267  and  _270
REMARK  110  A    between atoms: _270  and  _271
REMARK  111  A    between atoms: _274  and  _276
REMARK  112  A    between atoms: _276  and  _277
REMARK  113  A    between atoms: _276  and  _279
REMARK  114  A    between atoms: _279  and  _280
REMARK  115  A    between atoms: _283  and  _285
REMARK  116  A    between atoms: _285  and  _286
REMARK  117  A    between atoms: _285  and  _288
REMARK  118  A    between atoms: _288  and  _289
REMARK  119  A    between atoms: _292  and  _294
REMARK  120  A    between atoms: _294  and  _295
REMARK  121  A    between atoms: _297  and  _299
REMARK  122  A    between atoms: _299  and  _300
REMARK  123  A    between atoms: _299  and  _302
REMARK  124  A    between atoms: _302  and  _303
REMARK  125  A    between atoms: _313  and  _315
REMARK  126  A    between atoms: _315  and  _316
REMARK  127  A    between atoms: _315  and  _318
REMARK  128  A    between atoms: _318  and  _319
REMARK  129  A    between atoms: _322  and  _324
REMARK  130  A    between atoms: _324  and  _325
REMARK  131  A    between atoms: _324  and  _327
REMARK  132  A    between atoms: _327  and  _328
REMARK  133  A    between atoms: _331  and  _333
REMARK  134  A    between atoms: _333  and  _334
REMARK  135  A    between atoms: _333  and  _336
REMARK  136  A    between atoms: _336  and  _337
REMARK  137  A    between atoms: _339  and  _341
REMARK  138  A    between atoms: _341  and  _342
REMARK  139  A    between atoms: _341  and  _344
REMARK  140  A    between atoms: _344  and  _345
REMARK  141  A    between atoms: _348  and  _350
REMARK  142  A    between atoms: _350  and  _351
REMARK  143  A    between atoms: _350  and  _353
REMARK  144  A    between atoms: _353  and  _354
REMARK  145  A    between atoms: _357  and  _359
REMARK  146  A    between atoms: _359  and  _360
REMARK  147  A    between atoms: _359  and  _362
REMARK  148  A    between atoms: _362  and  _363
REMARK  149  A    between atoms: _368  and  _369
REMARK  150  A    between atoms: _371  and  _373
REMARK  151  A    between atoms: _373  and  _374
REMARK  152  A    between atoms: _373  and  _376
REMARK  153  A    between atoms: _376  and  _377
REMARK  154  A    between atoms: _387  and  _389
REMARK  155  A    between atoms: _389  and  _390
REMARK  156  A    between atoms: _389  and  _392
REMARK  157  A    between atoms: _392  and  _393
REMARK  158  A    between atoms: _398  and  _400
REMARK  159  A    between atoms: _400  and  _401
REMARK  160  A    between atoms: _400  and  _403
REMARK  161  A    between atoms: _403  and  _404
REMARK  162  A    between atoms: _407  and  _409
REMARK  163  A    between atoms: _409  and  _410
REMARK  164  A    between atoms: _409  and  _412
REMARK  165  A    between atoms: _415  and  _417
REMARK  166  A    between atoms: _417  and  _418
REMARK  167  A    between atoms: _417  and  _420
REMARK  168  A    between atoms: _420  and  _421
REMARK  169  A    between atoms: _424  and  _426
REMARK  170  A    between atoms: _426  and  _427
REMARK  171  A    between atoms: _426  and  _429
REMARK  172  A    between atoms: _429  and  _430
REMARK  173  A    between atoms: _432  and  _434
REMARK  174  A    between atoms: _434  and  _435
REMARK  175  A    between atoms: _437  and  _439
REMARK  176  A    between atoms: _439  and  _440
REMARK  177  A    between atoms: _439  and  _442
REMARK  178  A    between atoms: _442  and  _443
REMARK  179  A    between atoms: _446  and  _448
REMARK  180  A    between atoms: _448  and  _449
REMARK  181  A    between atoms: _448  and  _451
REMARK  182  A    between atoms: _451  and  _452
REMARK  183  A    between atoms: _454  and  _456
REMARK  184  A    between atoms: _456  and  _457
REMARK  185  A    between atoms: _460  and  _462
REMARK  186  A    between atoms: _462  and  _463
REMARK  187  A    between atoms: _462  and  _465
REMARK  188  A    between atoms: _465  and  _466
REMARK  189  A    between atoms: _469  and  _471
REMARK  190  A    between atoms: _471  and  _472
REMARK  191  A    between atoms: _471  and  _474
REMARK  192  A    between atoms: _474  and  _475
REMARK  193  A    between atoms: _478  and  _480
REMARK  194  A    between atoms: _480  and  _481
REMARK  195  A    between atoms: _480  and  _483
REMARK  196  A    between atoms: _487  and  _488
REMARK  197  A    between atoms: _493  and  _495
REMARK  198  A    between atoms: _495  and  _496
REMARK  199  A    between atoms: _495  and  _498
REMARK  200  A    between atoms: _498  and  _499
REMARK  201  A    between atoms: _504  and  _506
REMARK  202  A    between atoms: _506  and  _507
REMARK  203  A    between atoms: _506  and  _509
REMARK  204  A    between atoms: _509  and  _510
REMARK  205  A    between atoms: _513  and  _515
REMARK  206  A    between atoms: _515  and  _516
REMARK  207  A    between atoms: _515  and  _518
REMARK  208  A    between atoms: _518  and  _519
REMARK  209  A    between atoms: _522  and  _524
REMARK  210  A    between atoms: _524  and  _525
REMARK  211  A    between atoms: _524  and  _527
REMARK  212  A    between atoms: _527  and  _528
REMARK  213  A    between atoms: _531  and  _533
REMARK  214  A    between atoms: _533  and  _534
REMARK  215  A    between atoms: _533  and  _536
REMARK  216  A    between atoms: _536  and  _537
REMARK  217  A    between atoms: _543  and  _545
REMARK  218  A    between atoms: _545  and  _546
REMARK  219  A    between atoms: _545  and  _548
REMARK  220  A    between atoms: _548  and  _549
REMARK  221  A    between atoms: _552  and  _554
REMARK  222  A    between atoms: _554  and  _555
REMARK  223  A    between atoms: _554  and  _557
REMARK  224  A    between atoms: _557  and  _558
REMARK  225  A    between atoms: _564  and  _566
REMARK  226  A    between atoms: _566  and  _567
REMARK  227  A    between atoms: _566  and  _569
REMARK  228  A    between atoms: _569  and  _570
REMARK  229  A    between atoms: _573  and  _575
REMARK  230  A    between atoms: _575  and  _576
REMARK  231  A    between atoms: _575  and  _578
REMARK  232  A    between atoms: _578  and  _579
REMARK  233  A    between atoms: _582  and  _584
REMARK  234  A    between atoms: _584  and  _585
REMARK  235  A    between atoms: _587  and  _589
REMARK  236  A    between atoms: _589  and  _590
REMARK  237  A    between atoms: _589  and  _592
REMARK  238  A    between atoms: _592  and  _593
REMARK                            x       y       z     vdW  Elec       q    Type
REMARK                         _______ _______ _______ _____ _____    ______ ____
ROOT
ATOM      1  O   HOH     1      38.539  37.418   8.936  0.00  0.00    +0.000 OA
ENDROOT
TORSDOF 0
REMARK  Name = ../refined-set-2016/1lee/1lee_pocket.pdb
REMARK  238 active torsions:
REMARK  status: ('A' for Active; 'I' for Inactive)
REMARK    1  A    between atoms: _1  and  _3
REMARK    2  A    between atoms: _3  and  _4
REMARK    3  A    between atoms: _3  and  _6
REMARK    4  A    between atoms: _6  and  _7
REMARK    5  A    between atoms: _10  and  _12
REMARK    6  A    between atoms: _12  and  _13
REMARK    7  A    between atoms: _12  and  _15
REMARK    8  A    between atoms: _16  and  _17
REMARK    9  A    between atoms: _19  and  _21
REMARK   10  A    between atoms: _21  and  _22
REMARK   11  A    between atoms: _21  and  _24
REMARK   12  A    between atoms: _24  and  _25
REMARK   13  A    between atoms: _30  and  _31
REMARK   14  A    between atoms: _33  and  _35
REMARK   15  A    between atoms: _35  and  _36
REMARK   16  A    between atoms: _35  and  _38
REMARK   17  A    between atoms: _38  and  _39
REMARK   18  A    between atoms: _42  and  _44
REMARK   19  A    between atoms: _44  and  _45
REMARK   20  A    between atoms: _44  and  _47
REMARK   21  A    between atoms: _47  and  _48
REMARK   22  A    between atoms: _51  and  _53
REMARK   23  A    between atoms: _53  and  _54
REMARK   24  A    between atoms: _53  and  _56
REMARK   25  A    between atoms: _56  and  _57
REMARK   26  A    between atoms: _60  and  _62
REMARK   27  A    between atoms: _62  and  _63
REMARK   28  A    between atoms: _62  and  _65
REMARK   29  A    between atoms: _65  and  _66
REMARK   30  A    between atoms: _69  and  _71
REMARK   31  A    between atoms: _71  and  _72
REMARK   32  A    between atoms: _74  and  _76
REMARK   33  A    between atoms: _76  and  _77
REMARK   34  A    between atoms: _76  and  _79
REMARK   35  A    between atoms: _79  and  _80
REMARK   36  A    between atoms: _82  and  _84
REMARK   37  A    between atoms: _84  and  _85
REMARK   38  A    between atoms: _88  and  _90
REMARK   39  A    between atoms: _90  and  _91
REMARK   40  A    between atoms: _90  and  _93
REMARK   41  A    between atoms: _93  and  _94
REMARK   42  A    between atoms: _99  and  _101
REMARK   43  A    between atoms: _101  and  _102
REMARK   44  A    between atoms: _101  and  _104
REMARK   45  A    between atoms: _104  and  _105
REMARK   46  A    between atoms: _115  and  _117
REMARK   47  A    between atoms: _117  and  _118
REMARK   48  A    between atoms: _117  and  _120
REMARK   49  A    between atoms: _123  and  _125
REMARK   50  A    between atoms: _125  and  _126
REMARK   51  A    between atoms: _125  and  _128
REMARK   52  A    between atoms: _128  and  _129
REMARK   53  A    between atoms: _129  and  _130
REMARK   54  A    between atoms: _133  and  _135
REMARK   55  A    between atoms: _135  and  _136
REMARK   56  A    between atoms: _135  and  _138
REMARK   57  A    between atoms: _138  and  _139
REMARK   58  A    between atoms: _139  and  _140
REMARK   59  A    between atoms: _142  and  _144
REMARK   60  A    between atoms: _144  and  _145
REMARK   61  A    between atoms: _144  and  _147
REMARK   62  A    between atoms: _147  and  _148
REMARK   63  A    between atoms: _153  and  _155
REMARK   64  A    between atoms: _155  and  _156
REMARK   65  A    between atoms: _155  and  _158
REMARK   66  A    between atoms: _158  and  _159
REMARK   67  A    between atoms: _164  and  _165
REMARK   68  A    between atoms: _167  and  _169
REMARK   69  A    between atoms: _169  and  _170
REMARK   70  A    between atoms: _169  and  _172
REMARK   71  A    between atoms: _175  and  _177
REMARK   72  A    between atoms: _177  and  _178
REMARK   73  A    between atoms: _177  and  _180
REMARK   74  A    between atoms: _180  and  _181
REMARK   75  A    between atoms: _183  and  _185
REMARK   76  A    between atoms: _185  and  _186
REMARK   77  A    between atoms: _188  and  _190
REMARK   78  A    between atoms: _190  and  _191
REMARK   79  A    between atoms: _190  and  _193
REMARK   80  A    between atoms: _193  and  _194
REMARK   81  A    between atoms: _197  and  _199
REMARK   82  A    between atoms: _199  and  _200
REMARK   83  A    between atoms: _199  and  _202
REMARK   84  A    between atoms: _205  and  _207
REMARK   85  A    between atoms: _207  and  _208
REMARK   86  A    between atoms: _207  and  _210
REMARK   87  A    between atoms: _210  and  _211
REMARK   88  A    between atoms: _217  and  _219
REMARK   89  A    between atoms: _219  and  _220
REMARK   90  A    between atoms: _219  and  _222
REMARK   91  A    between atoms: _222  and  _223
REMARK   92  A    between atoms: _226  and  _228
REMARK   93  A    between atoms: _228  and  _229
REMARK   94  A    between atoms: _228  and  _231
REMARK   95  A    between atoms: _231  and  _232
REMARK   96  A    between atoms: _237  and  _238
REMARK   97  A    between atoms: _240  and  _242
REMARK   98  A    between atoms: _242  and  _243
REMARK   99  A    between atoms: _242  and  _245
REMARK  100  A    between atoms: _245  and  _246
REMARK  101  A    between atoms: _248  and  _250
REMARK  102  A    between atoms: _250  and  _251
REMARK  103  A    between atoms: _250  and  _253
REMARK  104  A    between atoms: _253  and  _254
REMARK  105  A    between atoms: _260  and  _262
REMARK  106  A    between atoms: _262  and  _263
REMARK  107  A    between atoms: _265  and  _267
REMARK  108  A    between atoms: _267  and  _268
REMARK  109  A    between atoms: _267  and  _270
REMARK  110  A    between atoms: _270  and  _271
REMARK  111  A    between atoms: _274  and  _276
REMARK  112  A    between atoms: _276  and  _277
REMARK  113  A    between atoms: _276  and  _279
REMARK  114  A    between atoms: _279  and  _280
REMARK  115  A    between atoms: _283  and  _285
REMARK  116  A    between atoms: _285  and  _286
REMARK  117  A    between atoms: _285  and  _288
REMARK  118  A    between atoms: _288  and  _289
REMARK  119  A    between atoms: _292  and  _294
REMARK  120  A    between atoms: _294  and  _295
REMARK  121  A    between atoms: _297  and  _299
REMARK  122  A    between atoms: _299  and  _300
REMARK  123  A    between atoms: _299  and  _302
REMARK  124  A    between atoms: _302  and  _303
REMARK  125  A    between atoms: _313  and  _315
REMARK  126  A    between atoms: _315  and  _316
REMARK  127  A    between atoms: _315  and  _318
REMARK  128  A    between atoms: _318  and  _319
REMARK  129  A    between atoms: _322  and  _324
REMARK  130  A    between atoms: _324  and  _325
REMARK  131  A    between atoms: _324  and  _327
REMARK  132  A    between atoms: _327  and  _328
REMARK  133  A    between atoms: _331  and  _333
REMARK  134  A    between atoms: _333  and  _334
REMARK  135  A    between atoms: _333  and  _336
REMARK  136  A    between atoms: _336  and  _337
REMARK  137  A    between atoms: _339  and  _341
REMARK  138  A    between atoms: _341  and  _342
REMARK  139  A    between atoms: _341  and  _344
REMARK  140  A    between atoms: _344  and  _345
REMARK  141  A    between atoms: _348  and  _350
REMARK  142  A    between atoms: _350  and  _351
REMARK  143  A    between atoms: _350  and  _353
REMARK  144  A    between atoms: _353  and  _354
REMARK  145  A    between atoms: _357  and  _359
REMARK  146  A    between atoms: _359  and  _360
REMARK  147  A    between atoms: _359  and  _362
REMARK  148  A    between atoms: _362  and  _363
REMARK  149  A    between atoms: _368  and  _369
REMARK  150  A    between atoms: _371  and  _373
REMARK  151  A    between atoms: _373  and  _374
REMARK  152  A    between atoms: _373  and  _376
REMARK  153  A    between atoms: _376  and  _377
REMARK  154  A    between atoms: _387  and  _389
REMARK  155  A    between atoms: _389  and  _390
REMARK  156  A    between atoms: _389  and  _392
REMARK  157  A    between atoms: _392  and  _393
REMARK  158  A    between atoms: _398  and  _400
REMARK  159  A    between atoms: _400  and  _401
REMARK  160  A    between atoms: _400  and  _403
REMARK  161  A    between atoms: _403  and  _404
REMARK  162  A    between atoms: _407  and  _409
REMARK  163  A    between atoms: _409  and  _410
REMARK  164  A    between atoms: _409  and  _412
REMARK  165  A    between atoms: _415  and  _417
REMARK  166  A    between atoms: _417  and  _418
REMARK  167  A    between atoms: _417  and  _420
REMARK  168  A    between atoms: _420  and  _421
REMARK  169  A    between atoms: _424  and  _426
REMARK  170  A    between atoms: _426  and  _427
REMARK  171  A    between atoms: _426  and  _429
REMARK  172  A    between atoms: _429  and  _430
REMARK  173  A    between atoms: _432  and  _434
REMARK  174  A    between atoms: _434  and  _435
REMARK  175  A    between atoms: _437  and  _439
REMARK  176  A    between atoms: _439  and  _440
REMARK  177  A    between atoms: _439  and  _442
REMARK  178  A    between atoms: _442  and  _443
REMARK  179  A    between atoms: _446  and  _448
REMARK  180  A    between atoms: _448  and  _449
REMARK  181  A    between atoms: _448  and  _451
REMARK  182  A    between atoms: _451  and  _452
REMARK  183  A    between atoms: _454  and  _456
REMARK  184  A    between atoms: _456  and  _457
REMARK  185  A    between atoms: _460  and  _462
REMARK  186  A    between atoms: _462  and  _463
REMARK  187  A    between atoms: _462  and  _465
REMARK  188  A    between atoms: _465  and  _466
REMARK  189  A    between atoms: _469  and  _471
REMARK  190  A    between atoms: _471  and  _472
REMARK  191  A    between atoms: _471  and  _474
REMARK  192  A    between atoms: _474  and  _475
REMARK  193  A    between atoms: _478  and  _480
REMARK  194  A    between atoms: _480  and  _481
REMARK  195  A    between atoms: _480  and  _483
REMARK  196  A    between atoms: _487  and  _488
REMARK  197  A    between atoms: _493  and  _495
REMARK  198  A    between atoms: _495  and  _496
REMARK  199  A    between atoms: _495  and  _498
REMARK  200  A    between atoms: _498  and  _499
REMARK  201  A    between atoms: _504  and  _506
REMARK  202  A    between atoms: _506  and  _507
REMARK  203  A    between atoms: _506  and  _509
REMARK  204  A    between atoms: _509  and  _510
REMARK  205  A    between atoms: _513  and  _515
REMARK  206  A    between atoms: _515  and  _516
REMARK  207  A    between atoms: _515  and  _518
REMARK  208  A    between atoms: _518  and  _519
REMARK  209  A    between atoms: _522  and  _524
REMARK  210  A    between atoms: _524  and  _525
REMARK  211  A    between atoms: _524  and  _527
REMARK  212  A    between atoms: _527  and  _528
REMARK  213  A    between atoms: _531  and  _533
REMARK  214  A    between atoms: _533  and  _534
REMARK  215  A    between atoms: _533  and  _536
REMARK  216  A    between atoms: _536  and  _537
REMARK  217  A    between atoms: _543  and  _545
REMARK  218  A    between atoms: _545  and  _546
REMARK  219  A    between atoms: _545  and  _548
REMARK  220  A    between atoms: _548  and  _549
REMARK  221  A    between atoms: _552  and  _554
REMARK  222  A    between atoms: _554  and  _555
REMARK  223  A    between atoms: _554  and  _557
REMARK  224  A    between atoms: _557  and  _558
REMARK  225  A    between atoms: _564  and  _566
REMARK  226  A    between atoms: _566  and  _567
REMARK  227  A    between atoms: _566  and  _569
REMARK  228  A    between atoms: _569  and  _570
REMARK  229  A    between atoms: _573  and  _575
REMARK  230  A    between atoms: _575  and  _576
REMARK  231  A    between atoms: _575  and  _578
REMARK  232  A    between atoms: _578  and  _579
REMARK  233  A    between atoms: _582  and  _584
REMARK  234  A    between atoms: _584  and  _585
REMARK  235  A    between atoms: _587  and  _589
REMARK  236  A    between atoms: _589  and  _590
REMARK  237  A    between atoms: _589  and  _592
REMARK  238  A    between atoms: _592  and  _593
REMARK                            x       y       z     vdW  Elec       q    Type
REMARK                         _______ _______ _______ _____ _____    ______ ____
ROOT
ATOM      1  O   HOH     1      39.967  37.546  12.058  0.00  0.00    +0.000 OA
ENDROOT
TORSDOF 0
REMARK  Name = ../refined-set-2016/1lee/1lee_pocket.pdb
REMARK  238 active torsions:
REMARK  status: ('A' for Active; 'I' for Inactive)
REMARK    1  A    between atoms: _1  and  _3
REMARK    2  A    between atoms: _3  and  _4
REMARK    3  A    between atoms: _3  and  _6
REMARK    4  A    between atoms: _6  and  _7
REMARK    5  A    between atoms: _10  and  _12
REMARK    6  A    between atoms: _12  and  _13
REMARK    7  A    between atoms: _12  and  _15
REMARK    8  A    between atoms: _16  and  _17
REMARK    9  A    between atoms: _19  and  _21
REMARK   10  A    between atoms: _21  and  _22
REMARK   11  A    between atoms: _21  and  _24
REMARK   12  A    between atoms: _24  and  _25
REMARK   13  A    between atoms: _30  and  _31
REMARK   14  A    between atoms: _33  and  _35
REMARK   15  A    between atoms: _35  and  _36
REMARK   16  A    between atoms: _35  and  _38
REMARK   17  A    between atoms: _38  and  _39
REMARK   18  A    between atoms: _42  and  _44
REMARK   19  A    between atoms: _44  and  _45
REMARK   20  A    between atoms: _44  and  _47
REMARK   21  A    between atoms: _47  and  _48
REMARK   22  A    between atoms: _51  and  _53
REMARK   23  A    between atoms: _53  and  _54
REMARK   24  A    between atoms: _53  and  _56
REMARK   25  A    between atoms: _56  and  _57
REMARK   26  A    between atoms: _60  and  _62
REMARK   27  A    between atoms: _62  and  _63
REMARK   28  A    between atoms: _62  and  _65
REMARK   29  A    between atoms: _65  and  _66
REMARK   30  A    between atoms: _69  and  _71
REMARK   31  A    between atoms: _71  and  _72
REMARK   32  A    between atoms: _74  and  _76
REMARK   33  A    between atoms: _76  and  _77
REMARK   34  A    between atoms: _76  and  _79
REMARK   35  A    between atoms: _79  and  _80
REMARK   36  A    between atoms: _82  and  _84
REMARK   37  A    between atoms: _84  and  _85
REMARK   38  A    between atoms: _88  and  _90
REMARK   39  A    between atoms: _90  and  _91
REMARK   40  A    between atoms: _90  and  _93
REMARK   41  A    between atoms: _93  and  _94
REMARK   42  A    between atoms: _99  and  _101
REMARK   43  A    between atoms: _101  and  _102
REMARK   44  A    between atoms: _101  and  _104
REMARK   45  A    between atoms: _104  and  _105
REMARK   46  A    between atoms: _115  and  _117
REMARK   47  A    between atoms: _117  and  _118
REMARK   48  A    between atoms: _117  and  _120
REMARK   49  A    between atoms: _123  and  _125
REMARK   50  A    between atoms: _125  and  _126
REMARK   51  A    between atoms: _125  and  _128
REMARK   52  A    between atoms: _128  and  _129
REMARK   53  A    between atoms: _129  and  _130
REMARK   54  A    between atoms: _133  and  _135
REMARK   55  A    between atoms: _135  and  _136
REMARK   56  A    between atoms: _135  and  _138
REMARK   57  A    between atoms: _138  and  _139
REMARK   58  A    between atoms: _139  and  _140
REMARK   59  A    between atoms: _142  and  _144
REMARK   60  A    between atoms: _144  and  _145
REMARK   61  A    between atoms: _144  and  _147
REMARK   62  A    between atoms: _147  and  _148
REMARK   63  A    between atoms: _153  and  _155
REMARK   64  A    between atoms: _155  and  _156
REMARK   65  A    between atoms: _155  and  _158
REMARK   66  A    between atoms: _158  and  _159
REMARK   67  A    between atoms: _164  and  _165
REMARK   68  A    between atoms: _167  and  _169
REMARK   69  A    between atoms: _169  and  _170
REMARK   70  A    between atoms: _169  and  _172
REMARK   71  A    between atoms: _175  and  _177
REMARK   72  A    between atoms: _177  and  _178
REMARK   73  A    between atoms: _177  and  _180
REMARK   74  A    between atoms: _180  and  _181
REMARK   75  A    between atoms: _183  and  _185
REMARK   76  A    between atoms: _185  and  _186
REMARK   77  A    between atoms: _188  and  _190
REMARK   78  A    between atoms: _190  and  _191
REMARK   79  A    between atoms: _190  and  _193
REMARK   80  A    between atoms: _193  and  _194
REMARK   81  A    between atoms: _197  and  _199
REMARK   82  A    between atoms: _199  and  _200
REMARK   83  A    between atoms: _199  and  _202
REMARK   84  A    between atoms: _205  and  _207
REMARK   85  A    between atoms: _207  and  _208
REMARK   86  A    between atoms: _207  and  _210
REMARK   87  A    between atoms: _210  and  _211
REMARK   88  A    between atoms: _217  and  _219
REMARK   89  A    between atoms: _219  and  _220
REMARK   90  A    between atoms: _219  and  _222
REMARK   91  A    between atoms: _222  and  _223
REMARK   92  A    between atoms: _226  and  _228
REMARK   93  A    between atoms: _228  and  _229
REMARK   94  A    between atoms: _228  and  _231
REMARK   95  A    between atoms: _231  and  _232
REMARK   96  A    between atoms: _237  and  _238
REMARK   97  A    between atoms: _240  and  _242
REMARK   98  A    between atoms: _242  and  _243
REMARK   99  A    between atoms: _242  and  _245
REMARK  100  A    between atoms: _245  and  _246
REMARK  101  A    between atoms: _248  and  _250
REMARK  102  A    between atoms: _250  and  _251
REMARK  103  A    between atoms: _250  and  _253
REMARK  104  A    between atoms: _253  and  _254
REMARK  105  A    between atoms: _260  and  _262
REMARK  106  A    between atoms: _262  and  _263
REMARK  107  A    between atoms: _265  and  _267
REMARK  108  A    between atoms: _267  and  _268
REMARK  109  A    between atoms: _267  and  _270
REMARK  110  A    between atoms: _270  and  _271
REMARK  111  A    between atoms: _274  and  _276
REMARK  112  A    between atoms: _276  and  _277
REMARK  113  A    between atoms: _276  and  _279
REMARK  114  A    between atoms: _279  and  _280
REMARK  115  A    between atoms: _283  and  _285
REMARK  116  A    between atoms: _285  and  _286
REMARK  117  A    between atoms: _285  and  _288
REMARK  118  A    between atoms: _288  and  _289
REMARK  119  A    between atoms: _292  and  _294
REMARK  120  A    between atoms: _294  and  _295
REMARK  121  A    between atoms: _297  and  _299
REMARK  122  A    between atoms: _299  and  _300
REMARK  123  A    between atoms: _299  and  _302
REMARK  124  A    between atoms: _302  and  _303
REMARK  125  A    between atoms: _313  and  _315
REMARK  126  A    between atoms: _315  and  _316
REMARK  127  A    between atoms: _315  and  _318
REMARK  128  A    between atoms: _318  and  _319
REMARK  129  A    between atoms: _322  and  _324
REMARK  130  A    between atoms: _324  and  _325
REMARK  131  A    between atoms: _324  and  _327
REMARK  132  A    between atoms: _327  and  _328
REMARK  133  A    between atoms: _331  and  _333
REMARK  134  A    between atoms: _333  and  _334
REMARK  135  A    between atoms: _333  and  _336
REMARK  136  A    between atoms: _336  and  _337
REMARK  137  A    between atoms: _339  and  _341
REMARK  138  A    between atoms: _341  and  _342
REMARK  139  A    between atoms: _341  and  _344
REMARK  140  A    between atoms: _344  and  _345
REMARK  141  A    between atoms: _348  and  _350
REMARK  142  A    between atoms: _350  and  _351
REMARK  143  A    between atoms: _350  and  _353
REMARK  144  A    between atoms: _353  and  _354
REMARK  145  A    between atoms: _357  and  _359
REMARK  146  A    between atoms: _359  and  _360
REMARK  147  A    between atoms: _359  and  _362
REMARK  148  A    between atoms: _362  and  _363
REMARK  149  A    between atoms: _368  and  _369
REMARK  150  A    between atoms: _371  and  _373
REMARK  151  A    between atoms: _373  and  _374
REMARK  152  A    between atoms: _373  and  _376
REMARK  153  A    between atoms: _376  and  _377
REMARK  154  A    between atoms: _387  and  _389
REMARK  155  A    between atoms: _389  and  _390
REMARK  156  A    between atoms: _389  and  _392
REMARK  157  A    between atoms: _392  and  _393
REMARK  158  A    between atoms: _398  and  _400
REMARK  159  A    between atoms: _400  and  _401
REMARK  160  A    between atoms: _400  and  _403
REMARK  161  A    between atoms: _403  and  _404
REMARK  162  A    between atoms: _407  and  _409
REMARK  163  A    between atoms: _409  and  _410
REMARK  164  A    between atoms: _409  and  _412
REMARK  165  A    between atoms: _415  and  _417
REMARK  166  A    between atoms: _417  and  _418
REMARK  167  A    between atoms: _417  and  _420
REMARK  168  A    between atoms: _420  and  _421
REMARK  169  A    between atoms: _424  and  _426
REMARK  170  A    between atoms: _426  and  _427
REMARK  171  A    between atoms: _426  and  _429
REMARK  172  A    between atoms: _429  and  _430
REMARK  173  A    between atoms: _432  and  _434
REMARK  174  A    between atoms: _434  and  _435
REMARK  175  A    between atoms: _437  and  _439
REMARK  176  A    between atoms: _439  and  _440
REMARK  177  A    between atoms: _439  and  _442
REMARK  178  A    between atoms: _442  and  _443
REMARK  179  A    between atoms: _446  and  _448
REMARK  180  A    between atoms: _448  and  _449
REMARK  181  A    between atoms: _448  and  _451
REMARK  182  A    between atoms: _451  and  _452
REMARK  183  A    between atoms: _454  and  _456
REMARK  184  A    between atoms: _456  and  _457
REMARK  185  A    between atoms: _460  and  _462
REMARK  186  A    between atoms: _462  and  _463
REMARK  187  A    between atoms: _462  and  _465
REMARK  188  A    between atoms: _465  and  _466
REMARK  189  A    between atoms: _469  and  _471
REMARK  190  A    between atoms: _471  and  _472
REMARK  191  A    between atoms: _471  and  _474
REMARK  192  A    between atoms: _474  and  _475
REMARK  193  A    between atoms: _478  and  _480
REMARK  194  A    between atoms: _480  and  _481
REMARK  195  A    between atoms: _480  and  _483
REMARK  196  A    between atoms: _487  and  _488
REMARK  197  A    between atoms: _493  and  _495
REMARK  198  A    between atoms: _495  and  _496
REMARK  199  A    between atoms: _495  and  _498
REMARK  200  A    between atoms: _498  and  _499
REMARK  201  A    between atoms: _504  and  _506
REMARK  202  A    between atoms: _506  and  _507
REMARK  203  A    between atoms: _506  and  _509
REMARK  204  A    between atoms: _509  and  _510
REMARK  205  A    between atoms: _513  and  _515
REMARK  206  A    between atoms: _515  and  _516
REMARK  207  A    between atoms: _515  and  _518
REMARK  208  A    between atoms: _518  and  _519
REMARK  209  A    between atoms: _522  and  _524
REMARK  210  A    between atoms: _524  and  _525
REMARK  211  A    between atoms: _524  and  _527
REMARK  212  A    between atoms: _527  and  _528
REMARK  213  A    between atoms: _531  and  _533
REMARK  214  A    between atoms: _533  and  _534
REMARK  215  A    between atoms: _533  and  _536
REMARK  216  A    between atoms: _536  and  _537
REMARK  217  A    between atoms: _543  and  _545
REMARK  218  A    between atoms: _545  and  _546
REMARK  219  A    between atoms: _545  and  _548
REMARK  220  A    between atoms: _548  and  _549
REMARK  221  A    between atoms: _552  and  _554
REMARK  222  A    between atoms: _554  and  _555
REMARK  223  A    between atoms: _554  and  _557
REMARK  224  A    between atoms: _557  and  _558
REMARK  225  A    between atoms: _564  and  _566
REMARK  226  A    between atoms: _566  and  _567
REMARK  227  A    between atoms: _566  and  _569
REMARK  228  A    between atoms: _569  and  _570
REMARK  229  A    between atoms: _573  and  _575
REMARK  230  A    between atoms: _575  and  _576
REMARK  231  A    between atoms: _575  and  _578
REMARK  232  A    between atoms: _578  and  _579
REMARK  233  A    between atoms: _582  and  _584
REMARK  234  A    between atoms: _584  and  _585
REMARK  235  A    between atoms: _587  and  _589
REMARK  236  A    between atoms: _589  and  _590
REMARK  237  A    between atoms: _589  and  _592
REMARK  238  A    between atoms: _592  and  _593
REMARK                            x       y       z     vdW  Elec       q    Type
REMARK                         _______ _______ _______ _____ _____    ______ ____
ROOT
ATOM      1  O   HOH     1      42.001  40.588  16.468  0.00  0.00    +0.000 OA
ENDROOT
TORSDOF 0
REMARK  Name = ../refined-set-2016/1lee/1lee_pocket.pdb
REMARK  238 active torsions:
REMARK  status: ('A' for Active; 'I' for Inactive)
REMARK    1  A    between atoms: _1  and  _3
REMARK    2  A    between atoms: _3  and  _4
REMARK    3  A    between atoms: _3  and  _6
REMARK    4  A    between atoms: _6  and  _7
REMARK    5  A    between atoms: _10  and  _12
REMARK    6  A    between atoms: _12  and  _13
REMARK    7  A    between atoms: _12  and  _15
REMARK    8  A    between atoms: _16  and  _17
REMARK    9  A    between atoms: _19  and  _21
REMARK   10  A    between atoms: _21  and  _22
REMARK   11  A    between atoms: _21  and  _24
REMARK   12  A    between atoms: _24  and  _25
REMARK   13  A    between atoms: _30  and  _31
REMARK   14  A    between atoms: _33  and  _35
REMARK   15  A    between atoms: _35  and  _36
REMARK   16  A    between atoms: _35  and  _38
REMARK   17  A    between atoms: _38  and  _39
REMARK   18  A    between atoms: _42  and  _44
REMARK   19  A    between atoms: _44  and  _45
REMARK   20  A    between atoms: _44  and  _47
REMARK   21  A    between atoms: _47  and  _48
REMARK   22  A    between atoms: _51  and  _53
REMARK   23  A    between atoms: _53  and  _54
REMARK   24  A    between atoms: _53  and  _56
REMARK   25  A    between atoms: _56  and  _57
REMARK   26  A    between atoms: _60  and  _62
REMARK   27  A    between atoms: _62  and  _63
REMARK   28  A    between atoms: _62  and  _65
REMARK   29  A    between atoms: _65  and  _66
REMARK   30  A    between atoms: _69  and  _71
REMARK   31  A    between atoms: _71  and  _72
REMARK   32  A    between atoms: _74  and  _76
REMARK   33  A    between atoms: _76  and  _77
REMARK   34  A    between atoms: _76  and  _79
REMARK   35  A    between atoms: _79  and  _80
REMARK   36  A    between atoms: _82  and  _84
REMARK   37  A    between atoms: _84  and  _85
REMARK   38  A    between atoms: _88  and  _90
REMARK   39  A    between atoms: _90  and  _91
REMARK   40  A    between atoms: _90  and  _93
REMARK   41  A    between atoms: _93  and  _94
REMARK   42  A    between atoms: _99  and  _101
REMARK   43  A    between atoms: _101  and  _102
REMARK   44  A    between atoms: _101  and  _104
REMARK   45  A    between atoms: _104  and  _105
REMARK   46  A    between atoms: _115  and  _117
REMARK   47  A    between atoms: _117  and  _118
REMARK   48  A    between atoms: _117  and  _120
REMARK   49  A    between atoms: _123  and  _125
REMARK   50  A    between atoms: _125  and  _126
REMARK   51  A    between atoms: _125  and  _128
REMARK   52  A    between atoms: _128  and  _129
REMARK   53  A    between atoms: _129  and  _130
REMARK   54  A    between atoms: _133  and  _135
REMARK   55  A    between atoms: _135  and  _136
REMARK   56  A    between atoms: _135  and  _138
REMARK   57  A    between atoms: _138  and  _139
REMARK   58  A    between atoms: _139  and  _140
REMARK   59  A    between atoms: _142  and  _144
REMARK   60  A    between atoms: _144  and  _145
REMARK   61  A    between atoms: _144  and  _147
REMARK   62  A    between atoms: _147  and  _148
REMARK   63  A    between atoms: _153  and  _155
REMARK   64  A    between atoms: _155  and  _156
REMARK   65  A    between atoms: _155  and  _158
REMARK   66  A    between atoms: _158  and  _159
REMARK   67  A    between atoms: _164  and  _165
REMARK   68  A    between atoms: _167  and  _169
REMARK   69  A    between atoms: _169  and  _170
REMARK   70  A    between atoms: _169  and  _172
REMARK   71  A    between atoms: _175  and  _177
REMARK   72  A    between atoms: _177  and  _178
REMARK   73  A    between atoms: _177  and  _180
REMARK   74  A    between atoms: _180  and  _181
REMARK   75  A    between atoms: _183  and  _185
REMARK   76  A    between atoms: _185  and  _186
REMARK   77  A    between atoms: _188  and  _190
REMARK   78  A    between atoms: _190  and  _191
REMARK   79  A    between atoms: _190  and  _193
REMARK   80  A    between atoms: _193  and  _194
REMARK   81  A    between atoms: _197  and  _199
REMARK   82  A    between atoms: _199  and  _200
REMARK   83  A    between atoms: _199  and  _202
REMARK   84  A    between atoms: _205  and  _207
REMARK   85  A    between atoms: _207  and  _208
REMARK   86  A    between atoms: _207  and  _210
REMARK   87  A    between atoms: _210  and  _211
REMARK   88  A    between atoms: _217  and  _219
REMARK   89  A    between atoms: _219  and  _220
REMARK   90  A    between atoms: _219  and  _222
REMARK   91  A    between atoms: _222  and  _223
REMARK   92  A    between atoms: _226  and  _228
REMARK   93  A    between atoms: _228  and  _229
REMARK   94  A    between atoms: _228  and  _231
REMARK   95  A    between atoms: _231  and  _232
REMARK   96  A    between atoms: _237  and  _238
REMARK   97  A    between atoms: _240  and  _242
REMARK   98  A    between atoms: _242  and  _243
REMARK   99  A    between atoms: _242  and  _245
REMARK  100  A    between atoms: _245  and  _246
REMARK  101  A    between atoms: _248  and  _250
REMARK  102  A    between atoms: _250  and  _251
REMARK  103  A    between atoms: _250  and  _253
REMARK  104  A    between atoms: _253  and  _254
REMARK  105  A    between atoms: _260  and  _262
REMARK  106  A    between atoms: _262  and  _263
REMARK  107  A    between atoms: _265  and  _267
REMARK  108  A    between atoms: _267  and  _268
REMARK  109  A    between atoms: _267  and  _270
REMARK  110  A    between atoms: _270  and  _271
REMARK  111  A    between atoms: _274  and  _276
REMARK  112  A    between atoms: _276  and  _277
REMARK  113  A    between atoms: _276  and  _279
REMARK  114  A    between atoms: _279  and  _280
REMARK  115  A    between atoms: _283  and  _285
REMARK  116  A    between atoms: _285  and  _286
REMARK  117  A    between atoms: _285  and  _288
REMARK  118  A    between atoms: _288  and  _289
REMARK  119  A    between atoms: _292  and  _294
REMARK  120  A    between atoms: _294  and  _295
REMARK  121  A    between atoms: _297  and  _299
REMARK  122  A    between atoms: _299  and  _300
REMARK  123  A    between atoms: _299  and  _302
REMARK  124  A    between atoms: _302  and  _303
REMARK  125  A    between atoms: _313  and  _315
REMARK  126  A    between atoms: _315  and  _316
REMARK  127  A    between atoms: _315  and  _318
REMARK  128  A    between atoms: _318  and  _319
REMARK  129  A    between atoms: _322  and  _324
REMARK  130  A    between atoms: _324  and  _325
REMARK  131  A    between atoms: _324  and  _327
REMARK  132  A    between atoms: _327  and  _328
REMARK  133  A    between atoms: _331  and  _333
REMARK  134  A    between atoms: _333  and  _334
REMARK  135  A    between atoms: _333  and  _336
REMARK  136  A    between atoms: _336  and  _337
REMARK  137  A    between atoms: _339  and  _341
REMARK  138  A    between atoms: _341  and  _342
REMARK  139  A    between atoms: _341  and  _344
REMARK  140  A    between atoms: _344  and  _345
REMARK  141  A    between atoms: _348  and  _350
REMARK  142  A    between atoms: _350  and  _351
REMARK  143  A    between atoms: _350  and  _353
REMARK  144  A    between atoms: _353  and  _354
REMARK  145  A    between atoms: _357  and  _359
REMARK  146  A    between atoms: _359  and  _360
REMARK  147  A    between atoms: _359  and  _362
REMARK  148  A    between atoms: _362  and  _363
REMARK  149  A    between atoms: _368  and  _369
REMARK  150  A    between atoms: _371  and  _373
REMARK  151  A    between atoms: _373  and  _374
REMARK  152  A    between atoms: _373  and  _376
REMARK  153  A    between atoms: _376  and  _377
REMARK  154  A    between atoms: _387  and  _389
REMARK  155  A    between atoms: _389  and  _390
REMARK  156  A    between atoms: _389  and  _392
REMARK  157  A    between atoms: _392  and  _393
REMARK  158  A    between atoms: _398  and  _400
REMARK  159  A    between atoms: _400  and  _401
REMARK  160  A    between atoms: _400  and  _403
REMARK  161  A    between atoms: _403  and  _404
REMARK  162  A    between atoms: _407  and  _409
REMARK  163  A    between atoms: _409  and  _410
REMARK  164  A    between atoms: _409  and  _412
REMARK  165  A    between atoms: _415  and  _417
REMARK  166  A    between atoms: _417  and  _418
REMARK  167  A    between atoms: _417  and  _420
REMARK  168  A    between atoms: _420  and  _421
REMARK  169  A    between atoms: _424  and  _426
REMARK  170  A    between atoms: _426  and  _427
REMARK  171  A    between atoms: _426  and  _429
REMARK  172  A    between atoms: _429  and  _430
REMARK  173  A    between atoms: _432  and  _434
REMARK  174  A    between atoms: _434  and  _435
REMARK  175  A    between atoms: _437  and  _439
REMARK  176  A    between atoms: _439  and  _440
REMARK  177  A    between atoms: _439  and  _442
REMARK  178  A    between atoms: _442  and  _443
REMARK  179  A    between atoms: _446  and  _448
REMARK  180  A    between atoms: _448  and  _449
REMARK  181  A    between atoms: _448  and  _451
REMARK  182  A    between atoms: _451  and  _452
REMARK  183  A    between atoms: _454  and  _456
REMARK  184  A    between atoms: _456  and  _457
REMARK  185  A    between atoms: _460  and  _462
REMARK  186  A    between atoms: _462  and  _463
REMARK  187  A    between atoms: _462  and  _465
REMARK  188  A    between atoms: _465  and  _466
REMARK  189  A    between atoms: _469  and  _471
REMARK  190  A    between atoms: _471  and  _472
REMARK  191  A    between atoms: _471  and  _474
REMARK  192  A    between atoms: _474  and  _475
REMARK  193  A    between atoms: _478  and  _480
REMARK  194  A    between atoms: _480  and  _481
REMARK  195  A    between atoms: _480  and  _483
REMARK  196  A    between atoms: _487  and  _488
REMARK  197  A    between atoms: _493  and  _495
REMARK  198  A    between atoms: _495  and  _496
REMARK  199  A    between atoms: _495  and  _498
REMARK  200  A    between atoms: _498  and  _499
REMARK  201  A    between atoms: _504  and  _506
REMARK  202  A    between atoms: _506  and  _507
REMARK  203  A    between atoms: _506  and  _509
REMARK  204  A    between atoms: _509  and  _510
REMARK  205  A    between atoms: _513  and  _515
REMARK  206  A    between atoms: _515  and  _516
REMARK  207  A    between atoms: _515  and  _518
REMARK  208  A    between atoms: _518  and  _519
REMARK  209  A    between atoms: _522  and  _524
REMARK  210  A    between atoms: _524  and  _525
REMARK  211  A    between atoms: _524  and  _527
REMARK  212  A    between atoms: _527  and  _528
REMARK  213  A    between atoms: _531  and  _533
REMARK  214  A    between atoms: _533  and  _534
REMARK  215  A    between atoms: _533  and  _536
REMARK  216  A    between atoms: _536  and  _537
REMARK  217  A    between atoms: _543  and  _545
REMARK  218  A    between atoms: _545  and  _546
REMARK  219  A    between atoms: _545  and  _548
REMARK  220  A    between atoms: _548  and  _549
REMARK  221  A    between atoms: _552  and  _554
REMARK  222  A    between atoms: _554  and  _555
REMARK  223  A    between atoms: _554  and  _557
REMARK  224  A    between atoms: _557  and  _558
REMARK  225  A    between atoms: _564  and  _566
REMARK  226  A    between atoms: _566  and  _567
REMARK  227  A    between atoms: _566  and  _569
REMARK  228  A    between atoms: _569  and  _570
REMARK  229  A    between atoms: _573  and  _575
REMARK  230  A    between atoms: _575  and  _576
REMARK  231  A    between atoms: _575  and  _578
REMARK  232  A    between atoms: _578  and  _579
REMARK  233  A    between atoms: _582  and  _584
REMARK  234  A    between atoms: _584  and  _585
REMARK  235  A    between atoms: _587  and  _589
REMARK  236  A    between atoms: _589  and  _590
REMARK  237  A    between atoms: _589  and  _592
REMARK  238  A    between atoms: _592  and  _593
REMARK                            x       y       z     vdW  Elec       q    Type
REMARK                         _______ _______ _______ _____ _____    ______ ____
ROOT
ATOM      1  O   HOH     1      38.477  41.040  13.273  0.00  0.00    +0.000 OA
ENDROOT
TORSDOF 0
