REMARK  Name = ../refined-set-2016/4ase/4ase_pocket.pdb
REMARK  248 active torsions:
REMARK  status: ('A' for Active; 'I' for Inactive)
REMARK    1  A    between atoms: _1  and  _3
REMARK    2  A    between atoms: _3  and  _4
REMARK    3  A    between atoms: _3  and  _6
REMARK    4  A    between atoms: _6  and  _7
REMARK    5  A    between atoms: _10  and  _12
REMARK    6  A    between atoms: _12  and  _13
REMARK    7  A    between atoms: _12  and  _15
REMARK    8  A    between atoms: _15  and  _16
REMARK    9  A    between atoms: _16  and  _17
REMARK   10  A    between atoms: _17  and  _18
REMARK   11  A    between atoms: _18  and  _19
REMARK   12  A    between atoms: _24  and  _25
REMARK   13  A    between atoms: _30  and  _32
REMARK   14  A    between atoms: _32  and  _33
REMARK   15  A    between atoms: _32  and  _35
REMARK   16  A    between atoms: _35  and  _36
REMARK   17  A    between atoms: _39  and  _41
REMARK   18  A    between atoms: _41  and  _42
REMARK   19  A    between atoms: _44  and  _46
REMARK   20  A    between atoms: _46  and  _47
REMARK   21  A    between atoms: _46  and  _49
REMARK   22  A    between atoms: _49  and  _50
REMARK   23  A    between atoms: _50  and  _51
REMARK   24  A    between atoms: _51  and  _52
REMARK   25  A    between atoms: _61  and  _63
REMARK   26  A    between atoms: _63  and  _64
REMARK   27  A    between atoms: _63  and  _66
REMARK   28  A    between atoms: _66  and  _67
REMARK   29  A    between atoms: _67  and  _68
REMARK   30  A    between atoms: _73  and  _75
REMARK   31  A    between atoms: _75  and  _76
REMARK   32  A    between atoms: _75  and  _78
REMARK   33  A    between atoms: _81  and  _83
REMARK   34  A    between atoms: _83  and  _84
REMARK   35  A    between atoms: _83  and  _86
REMARK   36  A    between atoms: _86  and  _87
REMARK   37  A    between atoms: _90  and  _92
REMARK   38  A    between atoms: _92  and  _93
REMARK   39  A    between atoms: _92  and  _95
REMARK   40  A    between atoms: _95  and  _96
REMARK   41  A    between atoms: _96  and  _97
REMARK   42  A    between atoms: _100  and  _102
REMARK   43  A    between atoms: _102  and  _103
REMARK   44  A    between atoms: _102  and  _105
REMARK   45  A    between atoms: _105  and  _106
REMARK   46  A    between atoms: _109  and  _111
REMARK   47  A    between atoms: _111  and  _112
REMARK   48  A    between atoms: _111  and  _114
REMARK   49  A    between atoms: _117  and  _119
REMARK   50  A    between atoms: _119  and  _120
REMARK   51  A    between atoms: _123  and  _125
REMARK   52  A    between atoms: _125  and  _126
REMARK   53  A    between atoms: _125  and  _128
REMARK   54  A    between atoms: _131  and  _133
REMARK   55  A    between atoms: _133  and  _134
REMARK   56  A    between atoms: _133  and  _136
REMARK   57  A    between atoms: _136  and  _137
REMARK   58  A    between atoms: _137  and  _138
REMARK   59  A    between atoms: _138  and  _139
REMARK   60  A    between atoms: _139  and  _140
REMARK   61  A    between atoms: _144  and  _146
REMARK   62  A    between atoms: _146  and  _147
REMARK   63  A    between atoms: _146  and  _149
REMARK   64  A    between atoms: _149  and  _150
REMARK   65  A    between atoms: _150  and  _151
REMARK   66  A    between atoms: _153  and  _155
REMARK   67  A    between atoms: _155  and  _156
REMARK   68  A    between atoms: _155  and  _158
REMARK   69  A    between atoms: _158  and  _159
REMARK   70  A    between atoms: _162  and  _164
REMARK   71  A    between atoms: _164  and  _165
REMARK   72  A    between atoms: _164  and  _167
REMARK   73  A    between atoms: _167  and  _168
REMARK   74  A    between atoms: _170  and  _172
REMARK   75  A    between atoms: _172  and  _173
REMARK   76  A    between atoms: _172  and  _175
REMARK   77  A    between atoms: _175  and  _176
REMARK   78  A    between atoms: _176  and  _177
REMARK   79  A    between atoms: _180  and  _182
REMARK   80  A    between atoms: _182  and  _183
REMARK   81  A    between atoms: _182  and  _185
REMARK   82  A    between atoms: _185  and  _186
REMARK   83  A    between atoms: _189  and  _191
REMARK   84  A    between atoms: _191  and  _192
REMARK   85  A    between atoms: _191  and  _194
REMARK   86  A    between atoms: _194  and  _195
REMARK   87  A    between atoms: _198  and  _200
REMARK   88  A    between atoms: _200  and  _201
REMARK   89  A    between atoms: _200  and  _203
REMARK   90  A    between atoms: _203  and  _204
REMARK   91  A    between atoms: _207  and  _209
REMARK   92  A    between atoms: _209  and  _210
REMARK   93  A    between atoms: _209  and  _212
REMARK   94  A    between atoms: _212  and  _213
REMARK   95  A    between atoms: _216  and  _218
REMARK   96  A    between atoms: _218  and  _219
REMARK   97  A    between atoms: _218  and  _221
REMARK   98  A    between atoms: _221  and  _222
REMARK   99  A    between atoms: _225  and  _227
REMARK  100  A    between atoms: _227  and  _228
REMARK  101  A    between atoms: _227  and  _230
REMARK  102  A    between atoms: _233  and  _235
REMARK  103  A    between atoms: _235  and  _236
REMARK  104  A    between atoms: _235  and  _238
REMARK  105  A    between atoms: _241  and  _243
REMARK  106  A    between atoms: _243  and  _244
REMARK  107  A    between atoms: _243  and  _246
REMARK  108  A    between atoms: _246  and  _247
REMARK  109  A    between atoms: _252  and  _254
REMARK  110  A    between atoms: _254  and  _255
REMARK  111  A    between atoms: _254  and  _257
REMARK  112  A    between atoms: _257  and  _258
REMARK  113  A    between atoms: _261  and  _263
REMARK  114  A    between atoms: _263  and  _264
REMARK  115  A    between atoms: _263  and  _266
REMARK  116  A    between atoms: _266  and  _267
REMARK  117  A    between atoms: _270  and  _272
REMARK  118  A    between atoms: _272  and  _273
REMARK  119  A    between atoms: _275  and  _277
REMARK  120  A    between atoms: _277  and  _278
REMARK  121  A    between atoms: _277  and  _280
REMARK  122  A    between atoms: _280  and  _281
REMARK  123  A    between atoms: _281  and  _282
REMARK  124  A    between atoms: _284  and  _286
REMARK  125  A    between atoms: _286  and  _287
REMARK  126  A    between atoms: _286  and  _289
REMARK  127  A    between atoms: _292  and  _294
REMARK  128  A    between atoms: _294  and  _295
REMARK  129  A    between atoms: _294  and  _297
REMARK  130  A    between atoms: _297  and  _298
REMARK  131  A    between atoms: _301  and  _303
REMARK  132  A    between atoms: _303  and  _304
REMARK  133  A    between atoms: _303  and  _306
REMARK  134  A    between atoms: _309  and  _311
REMARK  135  A    between atoms: _311  and  _312
REMARK  136  A    between atoms: _311  and  _314
REMARK  137  A    between atoms: _314  and  _315
REMARK  138  A    between atoms: _315  and  _316
REMARK  139  A    between atoms: _319  and  _321
REMARK  140  A    between atoms: _321  and  _322
REMARK  141  A    between atoms: _321  and  _324
REMARK  142  A    between atoms: _324  and  _325
REMARK  143  A    between atoms: _331  and  _333
REMARK  144  A    between atoms: _333  and  _334
REMARK  145  A    between atoms: _333  and  _336
REMARK  146  A    between atoms: _338  and  _340
REMARK  147  A    between atoms: _340  and  _341
REMARK  148  A    between atoms: _340  and  _343
REMARK  149  A    between atoms: _343  and  _344
REMARK  150  A    between atoms: _344  and  _345
REMARK  151  A    between atoms: _345  and  _346
REMARK  152  A    between atoms: _346  and  _347
REMARK  153  A    between atoms: _351  and  _353
REMARK  154  A    between atoms: _353  and  _354
REMARK  155  A    between atoms: _353  and  _356
REMARK  156  A    between atoms: _356  and  _357
REMARK  157  A    between atoms: _363  and  _365
REMARK  158  A    between atoms: _365  and  _366
REMARK  159  A    between atoms: _368  and  _370
REMARK  160  A    between atoms: _370  and  _371
REMARK  161  A    between atoms: _370  and  _373
REMARK  162  A    between atoms: _373  and  _374
REMARK  163  A    between atoms: _379  and  _381
REMARK  164  A    between atoms: _381  and  _382
REMARK  165  A    between atoms: _384  and  _386
REMARK  166  A    between atoms: _386  and  _387
REMARK  167  A    between atoms: _386  and  _389
REMARK  168  A    between atoms: _389  and  _390
REMARK  169  A    between atoms: _390  and  _391
REMARK  170  A    between atoms: _393  and  _395
REMARK  171  A    between atoms: _395  and  _396
REMARK  172  A    between atoms: _395  and  _398
REMARK  173  A    between atoms: _398  and  _399
REMARK  174  A    between atoms: _402  and  _404
REMARK  175  A    between atoms: _404  and  _405
REMARK  176  A    between atoms: _404  and  _407
REMARK  177  A    between atoms: _409  and  _411
REMARK  178  A    between atoms: _411  and  _412
REMARK  179  A    between atoms: _411  and  _414
REMARK  180  A    between atoms: _414  and  _415
REMARK  181  A    between atoms: _418  and  _420
REMARK  182  A    between atoms: _420  and  _421
REMARK  183  A    between atoms: _420  and  _423
REMARK  184  A    between atoms: _423  and  _424
REMARK  185  A    between atoms: _429  and  _431
REMARK  186  A    between atoms: _431  and  _432
REMARK  187  A    between atoms: _431  and  _434
REMARK  188  A    between atoms: _434  and  _435
REMARK  189  A    between atoms: _435  and  _436
REMARK  190  A    between atoms: _436  and  _437
REMARK  191  A    between atoms: _446  and  _448
REMARK  192  A    between atoms: _448  and  _449
REMARK  193  A    between atoms: _448  and  _451
REMARK  194  A    between atoms: _451  and  _452
REMARK  195  A    between atoms: _452  and  _453
REMARK  196  A    between atoms: _453  and  _454
REMARK  197  A    between atoms: _463  and  _465
REMARK  198  A    between atoms: _465  and  _466
REMARK  199  A    between atoms: _465  and  _468
REMARK  200  A    between atoms: _468  and  _469
REMARK  201  A    between atoms: _474  and  _476
REMARK  202  A    between atoms: _476  and  _477
REMARK  203  A    between atoms: _476  and  _479
REMARK  204  A    between atoms: _479  and  _480
REMARK  205  A    between atoms: _483  and  _485
REMARK  206  A    between atoms: _485  and  _486
REMARK  207  A    between atoms: _485  and  _488
REMARK  208  A    between atoms: _488  and  _489
REMARK  209  A    between atoms: _492  and  _494
REMARK  210  A    between atoms: _494  and  _495
REMARK  211  A    between atoms: _494  and  _497
REMARK  212  A    between atoms: _497  and  _498
REMARK  213  A    between atoms: _500  and  _502
REMARK  214  A    between atoms: _502  and  _503
REMARK  215  A    between atoms: _502  and  _505
REMARK  216  A    between atoms: _505  and  _506
REMARK  217  A    between atoms: _506  and  _507
REMARK  218  A    between atoms: _507  and  _508
REMARK  219  A    between atoms: _508  and  _509
REMARK  220  A    between atoms: _513  and  _515
REMARK  221  A    between atoms: _515  and  _516
REMARK  222  A    between atoms: _515  and  _518
REMARK  223  A    between atoms: _518  and  _519
REMARK  224  A    between atoms: _522  and  _524
REMARK  225  A    between atoms: _524  and  _525
REMARK  226  A    between atoms: _524  and  _527
REMARK  227  A    between atoms: _529  and  _531
REMARK  228  A    between atoms: _531  and  _532
REMARK  229  A    between atoms: _531  and  _534
REMARK  230  A    between atoms: _534  and  _535
REMARK  231  A    between atoms: _538  and  _540
REMARK  232  A    between atoms: _540  and  _541
REMARK  233  A    between atoms: _540  and  _543
REMARK  234  A    between atoms: _543  and  _544
REMARK  235  A    between atoms: _550  and  _552
REMARK  236  A    between atoms: _552  and  _553
REMARK  237  A    between atoms: _555  and  _557
REMARK  238  A    between atoms: _557  and  _558
REMARK  239  A    between atoms: _557  and  _560
REMARK  240  A    between atoms: _560  and  _561
REMARK  241  A    between atoms: _564  and  _566
REMARK  242  A    between atoms: _566  and  _567
REMARK  243  A    between atoms: _570  and  _572
REMARK  244  A    between atoms: _572  and  _573
REMARK  245  A    between atoms: _572  and  _575
REMARK  246  A    between atoms: _575  and  _576
REMARK  247  A    between atoms: _576  and  _577
REMARK  248  A    between atoms: _577  and  _578
REMARK                            x       y       z     vdW  Elec       q    Type
REMARK                         _______ _______ _______ _____ _____    ______ ____
ROOT
ATOM      1  CA  ASP A   1     -34.350  -8.716  -2.708  0.00  0.00    +0.144 C 
ENDROOT
BRANCH   1   2
ATOM      2  N   ASP A   1     -35.222  -7.908  -1.869  0.00  0.00    -0.239 NA
ATOM      3  H   ASP A   1     -34.806  -7.387  -1.071  0.00  0.00    +0.142 HD
ENDBRANCH   1   2
BRANCH   1   4
ATOM      4  C   ASP A   1     -34.842 -10.160  -2.755  0.00  0.00    +0.225 C 
ATOM      5  O   ASP A   1     -34.670 -10.857  -3.757  0.00  0.00    -0.287 OA
ENDBRANCH   1   4
BRANCH   1   6
ATOM      6  CB  ASP A   1     -32.925  -8.674  -2.151  0.00  0.00    +0.139 C 
BRANCH   6   7
ATOM      7  CG  ASP A   1     -31.896  -9.191  -3.133  0.00  0.00    +0.367 C 
ATOM      8  OD2 ASP A   1     -30.740  -8.719  -3.082  0.00  0.00    -0.246 OA
ATOM      9  OD1 ASP A   1     -32.241 -10.067  -3.955  0.00  0.00    -0.246 OA
ENDBRANCH   6   7
ENDBRANCH   1   6
TORSDOF 4
REMARK  Name = ../refined-set-2016/4ase/4ase_pocket.pdb
REMARK  248 active torsions:
REMARK  status: ('A' for Active; 'I' for Inactive)
REMARK    1  A    between atoms: _1  and  _3
REMARK    2  A    between atoms: _3  and  _4
REMARK    3  A    between atoms: _3  and  _6
REMARK    4  A    between atoms: _6  and  _7
REMARK    5  A    between atoms: _10  and  _12
REMARK    6  A    between atoms: _12  and  _13
REMARK    7  A    between atoms: _12  and  _15
REMARK    8  A    between atoms: _15  and  _16
REMARK    9  A    between atoms: _16  and  _17
REMARK   10  A    between atoms: _17  and  _18
REMARK   11  A    between atoms: _18  and  _19
REMARK   12  A    between atoms: _24  and  _25
REMARK   13  A    between atoms: _30  and  _32
REMARK   14  A    between atoms: _32  and  _33
REMARK   15  A    between atoms: _32  and  _35
REMARK   16  A    between atoms: _35  and  _36
REMARK   17  A    between atoms: _39  and  _41
REMARK   18  A    between atoms: _41  and  _42
REMARK   19  A    between atoms: _44  and  _46
REMARK   20  A    between atoms: _46  and  _47
REMARK   21  A    between atoms: _46  and  _49
REMARK   22  A    between atoms: _49  and  _50
REMARK   23  A    between atoms: _50  and  _51
REMARK   24  A    between atoms: _51  and  _52
REMARK   25  A    between atoms: _61  and  _63
REMARK   26  A    between atoms: _63  and  _64
REMARK   27  A    between atoms: _63  and  _66
REMARK   28  A    between atoms: _66  and  _67
REMARK   29  A    between atoms: _67  and  _68
REMARK   30  A    between atoms: _73  and  _75
REMARK   31  A    between atoms: _75  and  _76
REMARK   32  A    between atoms: _75  and  _78
REMARK   33  A    between atoms: _81  and  _83
REMARK   34  A    between atoms: _83  and  _84
REMARK   35  A    between atoms: _83  and  _86
REMARK   36  A    between atoms: _86  and  _87
REMARK   37  A    between atoms: _90  and  _92
REMARK   38  A    between atoms: _92  and  _93
REMARK   39  A    between atoms: _92  and  _95
REMARK   40  A    between atoms: _95  and  _96
REMARK   41  A    between atoms: _96  and  _97
REMARK   42  A    between atoms: _100  and  _102
REMARK   43  A    between atoms: _102  and  _103
REMARK   44  A    between atoms: _102  and  _105
REMARK   45  A    between atoms: _105  and  _106
REMARK   46  A    between atoms: _109  and  _111
REMARK   47  A    between atoms: _111  and  _112
REMARK   48  A    between atoms: _111  and  _114
REMARK   49  A    between atoms: _117  and  _119
REMARK   50  A    between atoms: _119  and  _120
REMARK   51  A    between atoms: _123  and  _125
REMARK   52  A    between atoms: _125  and  _126
REMARK   53  A    between atoms: _125  and  _128
REMARK   54  A    between atoms: _131  and  _133
REMARK   55  A    between atoms: _133  and  _134
REMARK   56  A    between atoms: _133  and  _136
REMARK   57  A    between atoms: _136  and  _137
REMARK   58  A    between atoms: _137  and  _138
REMARK   59  A    between atoms: _138  and  _139
REMARK   60  A    between atoms: _139  and  _140
REMARK   61  A    between atoms: _144  and  _146
REMARK   62  A    between atoms: _146  and  _147
REMARK   63  A    between atoms: _146  and  _149
REMARK   64  A    between atoms: _149  and  _150
REMARK   65  A    between atoms: _150  and  _151
REMARK   66  A    between atoms: _153  and  _155
REMARK   67  A    between atoms: _155  and  _156
REMARK   68  A    between atoms: _155  and  _158
REMARK   69  A    between atoms: _158  and  _159
REMARK   70  A    between atoms: _162  and  _164
REMARK   71  A    between atoms: _164  and  _165
REMARK   72  A    between atoms: _164  and  _167
REMARK   73  A    between atoms: _167  and  _168
REMARK   74  A    between atoms: _170  and  _172
REMARK   75  A    between atoms: _172  and  _173
REMARK   76  A    between atoms: _172  and  _175
REMARK   77  A    between atoms: _175  and  _176
REMARK   78  A    between atoms: _176  and  _177
REMARK   79  A    between atoms: _180  and  _182
REMARK   80  A    between atoms: _182  and  _183
REMARK   81  A    between atoms: _182  and  _185
REMARK   82  A    between atoms: _185  and  _186
REMARK   83  A    between atoms: _189  and  _191
REMARK   84  A    between atoms: _191  and  _192
REMARK   85  A    between atoms: _191  and  _194
REMARK   86  A    between atoms: _194  and  _195
REMARK   87  A    between atoms: _198  and  _200
REMARK   88  A    between atoms: _200  and  _201
REMARK   89  A    between atoms: _200  and  _203
REMARK   90  A    between atoms: _203  and  _204
REMARK   91  A    between atoms: _207  and  _209
REMARK   92  A    between atoms: _209  and  _210
REMARK   93  A    between atoms: _209  and  _212
REMARK   94  A    between atoms: _212  and  _213
REMARK   95  A    between atoms: _216  and  _218
REMARK   96  A    between atoms: _218  and  _219
REMARK   97  A    between atoms: _218  and  _221
REMARK   98  A    between atoms: _221  and  _222
REMARK   99  A    between atoms: _225  and  _227
REMARK  100  A    between atoms: _227  and  _228
REMARK  101  A    between atoms: _227  and  _230
REMARK  102  A    between atoms: _233  and  _235
REMARK  103  A    between atoms: _235  and  _236
REMARK  104  A    between atoms: _235  and  _238
REMARK  105  A    between atoms: _241  and  _243
REMARK  106  A    between atoms: _243  and  _244
REMARK  107  A    between atoms: _243  and  _246
REMARK  108  A    between atoms: _246  and  _247
REMARK  109  A    between atoms: _252  and  _254
REMARK  110  A    between atoms: _254  and  _255
REMARK  111  A    between atoms: _254  and  _257
REMARK  112  A    between atoms: _257  and  _258
REMARK  113  A    between atoms: _261  and  _263
REMARK  114  A    between atoms: _263  and  _264
REMARK  115  A    between atoms: _263  and  _266
REMARK  116  A    between atoms: _266  and  _267
REMARK  117  A    between atoms: _270  and  _272
REMARK  118  A    between atoms: _272  and  _273
REMARK  119  A    between atoms: _275  and  _277
REMARK  120  A    between atoms: _277  and  _278
REMARK  121  A    between atoms: _277  and  _280
REMARK  122  A    between atoms: _280  and  _281
REMARK  123  A    between atoms: _281  and  _282
REMARK  124  A    between atoms: _284  and  _286
REMARK  125  A    between atoms: _286  and  _287
REMARK  126  A    between atoms: _286  and  _289
REMARK  127  A    between atoms: _292  and  _294
REMARK  128  A    between atoms: _294  and  _295
REMARK  129  A    between atoms: _294  and  _297
REMARK  130  A    between atoms: _297  and  _298
REMARK  131  A    between atoms: _301  and  _303
REMARK  132  A    between atoms: _303  and  _304
REMARK  133  A    between atoms: _303  and  _306
REMARK  134  A    between atoms: _309  and  _311
REMARK  135  A    between atoms: _311  and  _312
REMARK  136  A    between atoms: _311  and  _314
REMARK  137  A    between atoms: _314  and  _315
REMARK  138  A    between atoms: _315  and  _316
REMARK  139  A    between atoms: _319  and  _321
REMARK  140  A    between atoms: _321  and  _322
REMARK  141  A    between atoms: _321  and  _324
REMARK  142  A    between atoms: _324  and  _325
REMARK  143  A    between atoms: _331  and  _333
REMARK  144  A    between atoms: _333  and  _334
REMARK  145  A    between atoms: _333  and  _336
REMARK  146  A    between atoms: _338  and  _340
REMARK  147  A    between atoms: _340  and  _341
REMARK  148  A    between atoms: _340  and  _343
REMARK  149  A    between atoms: _343  and  _344
REMARK  150  A    between atoms: _344  and  _345
REMARK  151  A    between atoms: _345  and  _346
REMARK  152  A    between atoms: _346  and  _347
REMARK  153  A    between atoms: _351  and  _353
REMARK  154  A    between atoms: _353  and  _354
REMARK  155  A    between atoms: _353  and  _356
REMARK  156  A    between atoms: _356  and  _357
REMARK  157  A    between atoms: _363  and  _365
REMARK  158  A    between atoms: _365  and  _366
REMARK  159  A    between atoms: _368  and  _370
REMARK  160  A    between atoms: _370  and  _371
REMARK  161  A    between atoms: _370  and  _373
REMARK  162  A    between atoms: _373  and  _374
REMARK  163  A    between atoms: _379  and  _381
REMARK  164  A    between atoms: _381  and  _382
REMARK  165  A    between atoms: _384  and  _386
REMARK  166  A    between atoms: _386  and  _387
REMARK  167  A    between atoms: _386  and  _389
REMARK  168  A    between atoms: _389  and  _390
REMARK  169  A    between atoms: _390  and  _391
REMARK  170  A    between atoms: _393  and  _395
REMARK  171  A    between atoms: _395  and  _396
REMARK  172  A    between atoms: _395  and  _398
REMARK  173  A    between atoms: _398  and  _399
REMARK  174  A    between atoms: _402  and  _404
REMARK  175  A    between atoms: _404  and  _405
REMARK  176  A    between atoms: _404  and  _407
REMARK  177  A    between atoms: _409  and  _411
REMARK  178  A    between atoms: _411  and  _412
REMARK  179  A    between atoms: _411  and  _414
REMARK  180  A    between atoms: _414  and  _415
REMARK  181  A    between atoms: _418  and  _420
REMARK  182  A    between atoms: _420  and  _421
REMARK  183  A    between atoms: _420  and  _423
REMARK  184  A    between atoms: _423  and  _424
REMARK  185  A    between atoms: _429  and  _431
REMARK  186  A    between atoms: _431  and  _432
REMARK  187  A    between atoms: _431  and  _434
REMARK  188  A    between atoms: _434  and  _435
REMARK  189  A    between atoms: _435  and  _436
REMARK  190  A    between atoms: _436  and  _437
REMARK  191  A    between atoms: _446  and  _448
REMARK  192  A    between atoms: _448  and  _449
REMARK  193  A    between atoms: _448  and  _451
REMARK  194  A    between atoms: _451  and  _452
REMARK  195  A    between atoms: _452  and  _453
REMARK  196  A    between atoms: _453  and  _454
REMARK  197  A    between atoms: _463  and  _465
REMARK  198  A    between atoms: _465  and  _466
REMARK  199  A    between atoms: _465  and  _468
REMARK  200  A    between atoms: _468  and  _469
REMARK  201  A    between atoms: _474  and  _476
REMARK  202  A    between atoms: _476  and  _477
REMARK  203  A    between atoms: _476  and  _479
REMARK  204  A    between atoms: _479  and  _480
REMARK  205  A    between atoms: _483  and  _485
REMARK  206  A    between atoms: _485  and  _486
REMARK  207  A    between atoms: _485  and  _488
REMARK  208  A    between atoms: _488  and  _489
REMARK  209  A    between atoms: _492  and  _494
REMARK  210  A    between atoms: _494  and  _495
REMARK  211  A    between atoms: _494  and  _497
REMARK  212  A    between atoms: _497  and  _498
REMARK  213  A    between atoms: _500  and  _502
REMARK  214  A    between atoms: _502  and  _503
REMARK  215  A    between atoms: _502  and  _505
REMARK  216  A    between atoms: _505  and  _506
REMARK  217  A    between atoms: _506  and  _507
REMARK  218  A    between atoms: _507  and  _508
REMARK  219  A    between atoms: _508  and  _509
REMARK  220  A    between atoms: _513  and  _515
REMARK  221  A    between atoms: _515  and  _516
REMARK  222  A    between atoms: _515  and  _518
REMARK  223  A    between atoms: _518  and  _519
REMARK  224  A    between atoms: _522  and  _524
REMARK  225  A    between atoms: _524  and  _525
REMARK  226  A    between atoms: _524  and  _527
REMARK  227  A    between atoms: _529  and  _531
REMARK  228  A    between atoms: _531  and  _532
REMARK  229  A    between atoms: _531  and  _534
REMARK  230  A    between atoms: _534  and  _535
REMARK  231  A    between atoms: _538  and  _540
REMARK  232  A    between atoms: _540  and  _541
REMARK  233  A    between atoms: _540  and  _543
REMARK  234  A    between atoms: _543  and  _544
REMARK  235  A    between atoms: _550  and  _552
REMARK  236  A    between atoms: _552  and  _553
REMARK  237  A    between atoms: _555  and  _557
REMARK  238  A    between atoms: _557  and  _558
REMARK  239  A    between atoms: _557  and  _560
REMARK  240  A    between atoms: _560  and  _561
REMARK  241  A    between atoms: _564  and  _566
REMARK  242  A    between atoms: _566  and  _567
REMARK  243  A    between atoms: _570  and  _572
REMARK  244  A    between atoms: _572  and  _573
REMARK  245  A    between atoms: _572  and  _575
REMARK  246  A    between atoms: _575  and  _576
REMARK  247  A    between atoms: _576  and  _577
REMARK  248  A    between atoms: _577  and  _578
REMARK                            x       y       z     vdW  Elec       q    Type
REMARK                         _______ _______ _______ _____ _____    ______ ____
ROOT
ATOM      1  CA  LEU A   3     -16.518  -0.739 -19.542  0.00  0.00    +0.149 C 
ENDROOT
BRANCH   1   3
ATOM      2  C   PRO A   2     -16.624  -1.655 -21.816  0.00  0.00    +0.241 C 
ATOM      3  N   LEU A   3     -17.206  -1.393 -20.650  0.00  0.00    -0.297 N 
ATOM      4  H   LEU A   3     -18.201  -1.668 -20.521  0.00  0.00    +0.150 HD
ATOM      5  O   PRO A   2     -15.469  -1.319 -22.086  0.00  0.00    -0.273 OA
BRANCH   2   9
ATOM      6  C   LYS A   1     -17.700  -0.583 -24.478  0.00  0.00    +0.241 C 
ATOM      7  O   LYS A   1     -18.276   0.138 -23.665  0.00  0.00    -0.273 OA
ATOM      8  N   PRO A   2     -17.355  -1.846 -24.189  0.00  0.00    -0.272 N 
ATOM      9  CA  PRO A   2     -17.491  -2.395 -22.836  0.00  0.00    +0.152 C 
ATOM     10  CB  PRO A   2     -17.085  -3.861 -22.992  0.00  0.00    +0.031 C 
ATOM     11  CG  PRO A   2     -16.261  -3.905 -24.245  0.00  0.00    +0.024 C 
ATOM     12  CD  PRO A   2     -16.792  -2.823 -25.138  0.00  0.00    +0.094 C 
BRANCH   6  13
ATOM     13  CA  LYS A   1     -17.341  -0.071 -25.871  0.00  0.00    +0.145 C 
BRANCH  13  14
ATOM     14  N   LYS A   1     -18.295   0.917 -26.357  0.00  0.00    -0.238 NA
ATOM     15  H   LYS A   1     -18.053   1.927 -26.308  0.00  0.00    +0.142 HD
ENDBRANCH  13  14
BRANCH  13  16
ATOM     16  CB  LYS A   1     -15.928   0.522 -25.844  0.00  0.00    +0.026 C 
BRANCH  16  17
ATOM     17  CG  LYS A   1     -15.687   1.533 -24.727  0.00  0.00    -0.000 C 
BRANCH  17  18
ATOM     18  CD  LYS A   1     -14.193   1.746 -24.484  0.00  0.00    -0.024 C 
BRANCH  18  19
ATOM     19  CE  LYS A   1     -13.921   2.367 -23.116  0.00  0.00    -0.086 C 
BRANCH  19  20
ATOM     20  NZ  LYS A   1     -14.453   3.756 -22.996  0.00  0.00    +0.380 N 
ATOM     21  HZ1 LYS A   1     -14.240   4.127 -22.048  0.00  0.00    -0.089 HD
ATOM     22  HZ2 LYS A   1     -15.483   3.745 -23.142  0.00  0.00    -0.089 HD
ATOM     23  HZ3 LYS A   1     -14.006   4.360 -23.715  0.00  0.00    -0.089 HD
ENDBRANCH  19  20
ENDBRANCH  18  19
ENDBRANCH  17  18
ENDBRANCH  16  17
ENDBRANCH  13  16
ENDBRANCH   6  13
ENDBRANCH   2   9
ENDBRANCH   1   3
BRANCH   1  24
ATOM     24  C   LEU A   3     -15.933  -1.794 -18.616  0.00  0.00    +0.241 C 
ATOM     25  O   LEU A   3     -14.873  -1.603 -18.028  0.00  0.00    -0.273 OA
ATOM     26  N   GLY A   4     -16.653  -2.904 -18.481  0.00  0.00    -0.295 N 
ATOM     27  H   GLY A   4     -17.554  -2.994 -18.993  0.00  0.00    +0.150 HD
BRANCH  26  28
ATOM     28  CA  GLY A   4     -16.204  -3.989 -17.634  0.00  0.00    +0.176 C 
BRANCH  28  29
ATOM     29  C   GLY A   4     -16.931  -5.272 -17.973  0.00  0.00    +0.243 C 
ATOM     30  N   ARG A   5     -16.302  -6.402 -17.669  0.00  0.00    -0.298 N 
ATOM     31  H   ARG A   5     -15.381  -6.364 -17.188  0.00  0.00    +0.150 HD
ATOM     32  O   GLY A   4     -18.046  -5.248 -18.505  0.00  0.00    -0.273 OA
BRANCH  30  33
ATOM     33  CA  ARG A   5     -16.885  -7.690 -18.000  0.00  0.00    +0.137 C 
BRANCH  33  34
ATOM     34  C   ARG A   5     -16.637  -8.735 -16.926  0.00  0.00    +0.227 C 
ATOM     35  O   ARG A   5     -15.554  -8.811 -16.350  0.00  0.00    -0.286 OA
ENDBRANCH  33  34
BRANCH  33  36
ATOM     36  CB  ARG A   5     -16.342  -8.171 -19.349  0.00  0.00    +0.031 C 
BRANCH  36  37
ATOM     37  CG  ARG A   5     -16.818  -7.307 -20.510  0.00  0.00    +0.045 C 
BRANCH  37  38
ATOM     38  CD  ARG A   5     -15.916  -7.422 -21.725  0.00  0.00    +0.174 C 
BRANCH  38  39
ATOM     39  NE  ARG A   5     -16.014  -8.731 -22.360  0.00  0.00    -0.265 N 
ATOM     40  HE  ARG A   5     -16.794  -9.357 -22.073  0.00  0.00    +0.259 HD
ATOM     41  CZ  ARG A   5     -15.166  -9.172 -23.284  0.00  0.00    +0.342 C 
ATOM     42  NH2 ARG A   5     -14.159  -8.404 -23.680  0.00  0.00    -0.292 N 
ATOM     43 HH21 ARG A   5     -14.033  -7.458 -23.268  0.00  0.00    +0.255 HD
ATOM     44 HH22 ARG A   5     -13.495  -8.748 -24.403  0.00  0.00    +0.255 HD
ATOM     45  NH1 ARG A   5     -15.325 -10.379 -23.812  0.00  0.00    -0.292 N 
ATOM     46 HH11 ARG A   5     -16.114 -10.982 -23.503  0.00  0.00    +0.255 HD
ATOM     47 HH12 ARG A   5     -14.660 -10.722 -24.535  0.00  0.00    +0.255 HD
ENDBRANCH  38  39
ENDBRANCH  37  38
ENDBRANCH  36  37
ENDBRANCH  33  36
ENDBRANCH  30  33
ENDBRANCH  28  29
ENDBRANCH  26  28
ENDBRANCH   1  24
BRANCH   1  48
ATOM     48  CB  LEU A   3     -17.502   0.134 -18.755  0.00  0.00    +0.029 C 
BRANCH  48  49
ATOM     49  CG  LEU A   3     -18.000   1.411 -19.436  0.00  0.00    +0.002 C 
ATOM     50  CD2 LEU A   3     -19.306   1.861 -18.809  0.00  0.00    +0.000 C 
ATOM     51  CD1 LEU A   3     -16.942   2.495 -19.320  0.00  0.00    +0.000 C 
ENDBRANCH  48  49
ENDBRANCH   1  48
TORSDOF 20
REMARK  Name = ../refined-set-2016/4ase/4ase_pocket.pdb
REMARK  248 active torsions:
REMARK  status: ('A' for Active; 'I' for Inactive)
REMARK    1  A    between atoms: _1  and  _3
REMARK    2  A    between atoms: _3  and  _4
REMARK    3  A    between atoms: _3  and  _6
REMARK    4  A    between atoms: _6  and  _7
REMARK    5  A    between atoms: _10  and  _12
REMARK    6  A    between atoms: _12  and  _13
REMARK    7  A    between atoms: _12  and  _15
REMARK    8  A    between atoms: _15  and  _16
REMARK    9  A    between atoms: _16  and  _17
REMARK   10  A    between atoms: _17  and  _18
REMARK   11  A    between atoms: _18  and  _19
REMARK   12  A    between atoms: _24  and  _25
REMARK   13  A    between atoms: _30  and  _32
REMARK   14  A    between atoms: _32  and  _33
REMARK   15  A    between atoms: _32  and  _35
REMARK   16  A    between atoms: _35  and  _36
REMARK   17  A    between atoms: _39  and  _41
REMARK   18  A    between atoms: _41  and  _42
REMARK   19  A    between atoms: _44  and  _46
REMARK   20  A    between atoms: _46  and  _47
REMARK   21  A    between atoms: _46  and  _49
REMARK   22  A    between atoms: _49  and  _50
REMARK   23  A    between atoms: _50  and  _51
REMARK   24  A    between atoms: _51  and  _52
REMARK   25  A    between atoms: _61  and  _63
REMARK   26  A    between atoms: _63  and  _64
REMARK   27  A    between atoms: _63  and  _66
REMARK   28  A    between atoms: _66  and  _67
REMARK   29  A    between atoms: _67  and  _68
REMARK   30  A    between atoms: _73  and  _75
REMARK   31  A    between atoms: _75  and  _76
REMARK   32  A    between atoms: _75  and  _78
REMARK   33  A    between atoms: _81  and  _83
REMARK   34  A    between atoms: _83  and  _84
REMARK   35  A    between atoms: _83  and  _86
REMARK   36  A    between atoms: _86  and  _87
REMARK   37  A    between atoms: _90  and  _92
REMARK   38  A    between atoms: _92  and  _93
REMARK   39  A    between atoms: _92  and  _95
REMARK   40  A    between atoms: _95  and  _96
REMARK   41  A    between atoms: _96  and  _97
REMARK   42  A    between atoms: _100  and  _102
REMARK   43  A    between atoms: _102  and  _103
REMARK   44  A    between atoms: _102  and  _105
REMARK   45  A    between atoms: _105  and  _106
REMARK   46  A    between atoms: _109  and  _111
REMARK   47  A    between atoms: _111  and  _112
REMARK   48  A    between atoms: _111  and  _114
REMARK   49  A    between atoms: _117  and  _119
REMARK   50  A    between atoms: _119  and  _120
REMARK   51  A    between atoms: _123  and  _125
REMARK   52  A    between atoms: _125  and  _126
REMARK   53  A    between atoms: _125  and  _128
REMARK   54  A    between atoms: _131  and  _133
REMARK   55  A    between atoms: _133  and  _134
REMARK   56  A    between atoms: _133  and  _136
REMARK   57  A    between atoms: _136  and  _137
REMARK   58  A    between atoms: _137  and  _138
REMARK   59  A    between atoms: _138  and  _139
REMARK   60  A    between atoms: _139  and  _140
REMARK   61  A    between atoms: _144  and  _146
REMARK   62  A    between atoms: _146  and  _147
REMARK   63  A    between atoms: _146  and  _149
REMARK   64  A    between atoms: _149  and  _150
REMARK   65  A    between atoms: _150  and  _151
REMARK   66  A    between atoms: _153  and  _155
REMARK   67  A    between atoms: _155  and  _156
REMARK   68  A    between atoms: _155  and  _158
REMARK   69  A    between atoms: _158  and  _159
REMARK   70  A    between atoms: _162  and  _164
REMARK   71  A    between atoms: _164  and  _165
REMARK   72  A    between atoms: _164  and  _167
REMARK   73  A    between atoms: _167  and  _168
REMARK   74  A    between atoms: _170  and  _172
REMARK   75  A    between atoms: _172  and  _173
REMARK   76  A    between atoms: _172  and  _175
REMARK   77  A    between atoms: _175  and  _176
REMARK   78  A    between atoms: _176  and  _177
REMARK   79  A    between atoms: _180  and  _182
REMARK   80  A    between atoms: _182  and  _183
REMARK   81  A    between atoms: _182  and  _185
REMARK   82  A    between atoms: _185  and  _186
REMARK   83  A    between atoms: _189  and  _191
REMARK   84  A    between atoms: _191  and  _192
REMARK   85  A    between atoms: _191  and  _194
REMARK   86  A    between atoms: _194  and  _195
REMARK   87  A    between atoms: _198  and  _200
REMARK   88  A    between atoms: _200  and  _201
REMARK   89  A    between atoms: _200  and  _203
REMARK   90  A    between atoms: _203  and  _204
REMARK   91  A    between atoms: _207  and  _209
REMARK   92  A    between atoms: _209  and  _210
REMARK   93  A    between atoms: _209  and  _212
REMARK   94  A    between atoms: _212  and  _213
REMARK   95  A    between atoms: _216  and  _218
REMARK   96  A    between atoms: _218  and  _219
REMARK   97  A    between atoms: _218  and  _221
REMARK   98  A    between atoms: _221  and  _222
REMARK   99  A    between atoms: _225  and  _227
REMARK  100  A    between atoms: _227  and  _228
REMARK  101  A    between atoms: _227  and  _230
REMARK  102  A    between atoms: _233  and  _235
REMARK  103  A    between atoms: _235  and  _236
REMARK  104  A    between atoms: _235  and  _238
REMARK  105  A    between atoms: _241  and  _243
REMARK  106  A    between atoms: _243  and  _244
REMARK  107  A    between atoms: _243  and  _246
REMARK  108  A    between atoms: _246  and  _247
REMARK  109  A    between atoms: _252  and  _254
REMARK  110  A    between atoms: _254  and  _255
REMARK  111  A    between atoms: _254  and  _257
REMARK  112  A    between atoms: _257  and  _258
REMARK  113  A    between atoms: _261  and  _263
REMARK  114  A    between atoms: _263  and  _264
REMARK  115  A    between atoms: _263  and  _266
REMARK  116  A    between atoms: _266  and  _267
REMARK  117  A    between atoms: _270  and  _272
REMARK  118  A    between atoms: _272  and  _273
REMARK  119  A    between atoms: _275  and  _277
REMARK  120  A    between atoms: _277  and  _278
REMARK  121  A    between atoms: _277  and  _280
REMARK  122  A    between atoms: _280  and  _281
REMARK  123  A    between atoms: _281  and  _282
REMARK  124  A    between atoms: _284  and  _286
REMARK  125  A    between atoms: _286  and  _287
REMARK  126  A    between atoms: _286  and  _289
REMARK  127  A    between atoms: _292  and  _294
REMARK  128  A    between atoms: _294  and  _295
REMARK  129  A    between atoms: _294  and  _297
REMARK  130  A    between atoms: _297  and  _298
REMARK  131  A    between atoms: _301  and  _303
REMARK  132  A    between atoms: _303  and  _304
REMARK  133  A    between atoms: _303  and  _306
REMARK  134  A    between atoms: _309  and  _311
REMARK  135  A    between atoms: _311  and  _312
REMARK  136  A    between atoms: _311  and  _314
REMARK  137  A    between atoms: _314  and  _315
REMARK  138  A    between atoms: _315  and  _316
REMARK  139  A    between atoms: _319  and  _321
REMARK  140  A    between atoms: _321  and  _322
REMARK  141  A    between atoms: _321  and  _324
REMARK  142  A    between atoms: _324  and  _325
REMARK  143  A    between atoms: _331  and  _333
REMARK  144  A    between atoms: _333  and  _334
REMARK  145  A    between atoms: _333  and  _336
REMARK  146  A    between atoms: _338  and  _340
REMARK  147  A    between atoms: _340  and  _341
REMARK  148  A    between atoms: _340  and  _343
REMARK  149  A    between atoms: _343  and  _344
REMARK  150  A    between atoms: _344  and  _345
REMARK  151  A    between atoms: _345  and  _346
REMARK  152  A    between atoms: _346  and  _347
REMARK  153  A    between atoms: _351  and  _353
REMARK  154  A    between atoms: _353  and  _354
REMARK  155  A    between atoms: _353  and  _356
REMARK  156  A    between atoms: _356  and  _357
REMARK  157  A    between atoms: _363  and  _365
REMARK  158  A    between atoms: _365  and  _366
REMARK  159  A    between atoms: _368  and  _370
REMARK  160  A    between atoms: _370  and  _371
REMARK  161  A    between atoms: _370  and  _373
REMARK  162  A    between atoms: _373  and  _374
REMARK  163  A    between atoms: _379  and  _381
REMARK  164  A    between atoms: _381  and  _382
REMARK  165  A    between atoms: _384  and  _386
REMARK  166  A    between atoms: _386  and  _387
REMARK  167  A    between atoms: _386  and  _389
REMARK  168  A    between atoms: _389  and  _390
REMARK  169  A    between atoms: _390  and  _391
REMARK  170  A    between atoms: _393  and  _395
REMARK  171  A    between atoms: _395  and  _396
REMARK  172  A    between atoms: _395  and  _398
REMARK  173  A    between atoms: _398  and  _399
REMARK  174  A    between atoms: _402  and  _404
REMARK  175  A    between atoms: _404  and  _405
REMARK  176  A    between atoms: _404  and  _407
REMARK  177  A    between atoms: _409  and  _411
REMARK  178  A    between atoms: _411  and  _412
REMARK  179  A    between atoms: _411  and  _414
REMARK  180  A    between atoms: _414  and  _415
REMARK  181  A    between atoms: _418  and  _420
REMARK  182  A    between atoms: _420  and  _421
REMARK  183  A    between atoms: _420  and  _423
REMARK  184  A    between atoms: _423  and  _424
REMARK  185  A    between atoms: _429  and  _431
REMARK  186  A    between atoms: _431  and  _432
REMARK  187  A    between atoms: _431  and  _434
REMARK  188  A    between atoms: _434  and  _435
REMARK  189  A    between atoms: _435  and  _436
REMARK  190  A    between atoms: _436  and  _437
REMARK  191  A    between atoms: _446  and  _448
REMARK  192  A    between atoms: _448  and  _449
REMARK  193  A    between atoms: _448  and  _451
REMARK  194  A    between atoms: _451  and  _452
REMARK  195  A    between atoms: _452  and  _453
REMARK  196  A    between atoms: _453  and  _454
REMARK  197  A    between atoms: _463  and  _465
REMARK  198  A    between atoms: _465  and  _466
REMARK  199  A    between atoms: _465  and  _468
REMARK  200  A    between atoms: _468  and  _469
REMARK  201  A    between atoms: _474  and  _476
REMARK  202  A    between atoms: _476  and  _477
REMARK  203  A    between atoms: _476  and  _479
REMARK  204  A    between atoms: _479  and  _480
REMARK  205  A    between atoms: _483  and  _485
REMARK  206  A    between atoms: _485  and  _486
REMARK  207  A    between atoms: _485  and  _488
REMARK  208  A    between atoms: _488  and  _489
REMARK  209  A    between atoms: _492  and  _494
REMARK  210  A    between atoms: _494  and  _495
REMARK  211  A    between atoms: _494  and  _497
REMARK  212  A    between atoms: _497  and  _498
REMARK  213  A    between atoms: _500  and  _502
REMARK  214  A    between atoms: _502  and  _503
REMARK  215  A    between atoms: _502  and  _505
REMARK  216  A    between atoms: _505  and  _506
REMARK  217  A    between atoms: _506  and  _507
REMARK  218  A    between atoms: _507  and  _508
REMARK  219  A    between atoms: _508  and  _509
REMARK  220  A    between atoms: _513  and  _515
REMARK  221  A    between atoms: _515  and  _516
REMARK  222  A    between atoms: _515  and  _518
REMARK  223  A    between atoms: _518  and  _519
REMARK  224  A    between atoms: _522  and  _524
REMARK  225  A    between atoms: _524  and  _525
REMARK  226  A    between atoms: _524  and  _527
REMARK  227  A    between atoms: _529  and  _531
REMARK  228  A    between atoms: _531  and  _532
REMARK  229  A    between atoms: _531  and  _534
REMARK  230  A    between atoms: _534  and  _535
REMARK  231  A    between atoms: _538  and  _540
REMARK  232  A    between atoms: _540  and  _541
REMARK  233  A    between atoms: _540  and  _543
REMARK  234  A    between atoms: _543  and  _544
REMARK  235  A    between atoms: _550  and  _552
REMARK  236  A    between atoms: _552  and  _553
REMARK  237  A    between atoms: _555  and  _557
REMARK  238  A    between atoms: _557  and  _558
REMARK  239  A    between atoms: _557  and  _560
REMARK  240  A    between atoms: _560  and  _561
REMARK  241  A    between atoms: _564  and  _566
REMARK  242  A    between atoms: _566  and  _567
REMARK  243  A    between atoms: _570  and  _572
REMARK  244  A    between atoms: _572  and  _573
REMARK  245  A    between atoms: _572  and  _575
REMARK  246  A    between atoms: _575  and  _576
REMARK  247  A    between atoms: _576  and  _577
REMARK  248  A    between atoms: _577  and  _578
REMARK                            x       y       z     vdW  Elec       q    Type
REMARK                         _______ _______ _______ _____ _____    ______ ____
ROOT
ATOM      1  C   VAL A   2     -20.814  -2.497 -19.649  0.00  0.00    +0.241 C 
ATOM      2  O   VAL A   2     -19.594  -2.505 -19.842  0.00  0.00    -0.273 OA
ATOM      3  N   ILE A   3     -21.679  -1.899 -20.461  0.00  0.00    -0.297 N 
ATOM      4  H   ILE A   3     -22.685  -1.881 -20.197  0.00  0.00    +0.150 HD
ENDROOT
BRANCH   3   5
ATOM      5  CA  ILE A   3     -21.268  -1.267 -21.708  0.00  0.00    +0.149 C 
BRANCH   5   6
ATOM      6  C   ILE A   3     -21.546   0.231 -21.633  0.00  0.00    +0.241 C 
ATOM      7  O   ILE A   3     -22.588   0.646 -21.125  0.00  0.00    -0.273 OA
ATOM      8  N   GLU A   4     -20.623   1.040 -22.144  0.00  0.00    -0.298 N 
ATOM      9  H   GLU A   4     -19.708   0.646 -22.442  0.00  0.00    +0.150 HD
BRANCH   8  10
ATOM     10  CA  GLU A   4     -20.871   2.470 -22.294  0.00  0.00    +0.137 C 
BRANCH  10  11
ATOM     11  C   GLU A   4     -21.793   2.698 -23.496  0.00  0.00    +0.227 C 
ATOM     12  O   GLU A   4     -21.654   2.039 -24.532  0.00  0.00    -0.286 OA
ENDBRANCH  10  11
BRANCH  10  13
ATOM     13  CB  GLU A   4     -19.542   3.218 -22.492  0.00  0.00    +0.039 C 
BRANCH  13  14
ATOM     14  CG  GLU A   4     -19.682   4.727 -22.594  0.00  0.00    +0.116 C 
BRANCH  14  15
ATOM     15  CD  GLU A   4     -18.337   5.446 -22.618  0.00  0.00    +0.365 C 
ATOM     16  OE2 GLU A   4     -17.326   4.855 -22.183  0.00  0.00    -0.246 OA
ATOM     17  OE1 GLU A   4     -18.292   6.606 -23.070  0.00  0.00    -0.246 OA
ENDBRANCH  14  15
ENDBRANCH  13  14
ENDBRANCH  10  13
ENDBRANCH   8  10
ENDBRANCH   5   6
BRANCH   5  18
ATOM     18  CB  ILE A   3     -22.057  -1.848 -22.898  0.00  0.00    +0.027 C 
ATOM     19  CG2 ILE A   3     -21.544  -1.257 -24.219  0.00  0.00    +0.002 C 
BRANCH  18  20
ATOM     20  CG1 ILE A   3     -21.956  -3.376 -22.893  0.00  0.00    +0.002 C 
ATOM     21  CD1 ILE A   3     -20.537  -3.898 -22.793  0.00  0.00    +0.000 C 
ENDBRANCH  18  20
ENDBRANCH   5  18
ENDBRANCH   3   5
BRANCH   1  22
ATOM     22  CA  VAL A   2     -21.420  -3.208 -18.446  0.00  0.00    +0.148 C 
BRANCH  22  25
ATOM     23  C   GLN A   1     -21.662  -5.624 -18.415  0.00  0.00    +0.238 C 
ATOM     24  O   GLN A   1     -22.889  -5.554 -18.334  0.00  0.00    -0.274 OA
ATOM     25  N   VAL A   2     -20.874  -4.556 -18.372  0.00  0.00    -0.297 N 
ATOM     26  H   VAL A   2     -19.846  -4.685 -18.284  0.00  0.00    +0.150 HD
BRANCH  23  27
ATOM     27  CA  GLN A   1     -20.963  -6.973 -18.553  0.00  0.00    +0.145 C 
BRANCH  27  28
ATOM     28  N   GLN A   1     -21.867  -8.035 -18.140  0.00  0.00    -0.238 NA
ATOM     29  H   GLN A   1     -22.893  -7.870 -18.168  0.00  0.00    +0.142 HD
ENDBRANCH  27  28
BRANCH  27  30
ATOM     30  CB  GLN A   1     -20.532  -7.186 -20.013  0.00  0.00    +0.036 C 
BRANCH  30  31
ATOM     31  CG  GLN A   1     -21.700  -7.275 -20.994  0.00  0.00    +0.087 C 
BRANCH  31  32
ATOM     32  CD  GLN A   1     -21.276  -7.676 -22.403  0.00  0.00    +0.219 C 
ATOM     33  OE1 GLN A   1     -20.167  -7.383 -22.839  0.00  0.00    -0.275 OA
ATOM     34  NE2 GLN A   1     -22.170  -8.351 -23.119  0.00  0.00    -0.329 N 
ATOM     35 HE21 GLN A   1     -23.099  -8.579 -22.710  0.00  0.00    +0.145 HD
ATOM     36 HE22 GLN A   1     -21.940  -8.652 -24.088  0.00  0.00    +0.145 HD
ENDBRANCH  31  32
ENDBRANCH  30  31
ENDBRANCH  27  30
ENDBRANCH  23  27
ENDBRANCH  22  25
BRANCH  22  37
ATOM     37  CB  VAL A   2     -21.112  -2.411 -17.161  0.00  0.00    +0.027 C 
ATOM     38  CG2 VAL A   2     -21.782  -3.087 -15.966  0.00  0.00    +0.002 C 
ATOM     39  CG1 VAL A   2     -21.613  -0.960 -17.300  0.00  0.00    +0.002 C 
ENDBRANCH  22  37
ENDBRANCH   1  22
TORSDOF 17
REMARK  Name = ../refined-set-2016/4ase/4ase_pocket.pdb
REMARK  248 active torsions:
REMARK  status: ('A' for Active; 'I' for Inactive)
REMARK    1  A    between atoms: _1  and  _3
REMARK    2  A    between atoms: _3  and  _4
REMARK    3  A    between atoms: _3  and  _6
REMARK    4  A    between atoms: _6  and  _7
REMARK    5  A    between atoms: _10  and  _12
REMARK    6  A    between atoms: _12  and  _13
REMARK    7  A    between atoms: _12  and  _15
REMARK    8  A    between atoms: _15  and  _16
REMARK    9  A    between atoms: _16  and  _17
REMARK   10  A    between atoms: _17  and  _18
REMARK   11  A    between atoms: _18  and  _19
REMARK   12  A    between atoms: _24  and  _25
REMARK   13  A    between atoms: _30  and  _32
REMARK   14  A    between atoms: _32  and  _33
REMARK   15  A    between atoms: _32  and  _35
REMARK   16  A    between atoms: _35  and  _36
REMARK   17  A    between atoms: _39  and  _41
REMARK   18  A    between atoms: _41  and  _42
REMARK   19  A    between atoms: _44  and  _46
REMARK   20  A    between atoms: _46  and  _47
REMARK   21  A    between atoms: _46  and  _49
REMARK   22  A    between atoms: _49  and  _50
REMARK   23  A    between atoms: _50  and  _51
REMARK   24  A    between atoms: _51  and  _52
REMARK   25  A    between atoms: _61  and  _63
REMARK   26  A    between atoms: _63  and  _64
REMARK   27  A    between atoms: _63  and  _66
REMARK   28  A    between atoms: _66  and  _67
REMARK   29  A    between atoms: _67  and  _68
REMARK   30  A    between atoms: _73  and  _75
REMARK   31  A    between atoms: _75  and  _76
REMARK   32  A    between atoms: _75  and  _78
REMARK   33  A    between atoms: _81  and  _83
REMARK   34  A    between atoms: _83  and  _84
REMARK   35  A    between atoms: _83  and  _86
REMARK   36  A    between atoms: _86  and  _87
REMARK   37  A    between atoms: _90  and  _92
REMARK   38  A    between atoms: _92  and  _93
REMARK   39  A    between atoms: _92  and  _95
REMARK   40  A    between atoms: _95  and  _96
REMARK   41  A    between atoms: _96  and  _97
REMARK   42  A    between atoms: _100  and  _102
REMARK   43  A    between atoms: _102  and  _103
REMARK   44  A    between atoms: _102  and  _105
REMARK   45  A    between atoms: _105  and  _106
REMARK   46  A    between atoms: _109  and  _111
REMARK   47  A    between atoms: _111  and  _112
REMARK   48  A    between atoms: _111  and  _114
REMARK   49  A    between atoms: _117  and  _119
REMARK   50  A    between atoms: _119  and  _120
REMARK   51  A    between atoms: _123  and  _125
REMARK   52  A    between atoms: _125  and  _126
REMARK   53  A    between atoms: _125  and  _128
REMARK   54  A    between atoms: _131  and  _133
REMARK   55  A    between atoms: _133  and  _134
REMARK   56  A    between atoms: _133  and  _136
REMARK   57  A    between atoms: _136  and  _137
REMARK   58  A    between atoms: _137  and  _138
REMARK   59  A    between atoms: _138  and  _139
REMARK   60  A    between atoms: _139  and  _140
REMARK   61  A    between atoms: _144  and  _146
REMARK   62  A    between atoms: _146  and  _147
REMARK   63  A    between atoms: _146  and  _149
REMARK   64  A    between atoms: _149  and  _150
REMARK   65  A    between atoms: _150  and  _151
REMARK   66  A    between atoms: _153  and  _155
REMARK   67  A    between atoms: _155  and  _156
REMARK   68  A    between atoms: _155  and  _158
REMARK   69  A    between atoms: _158  and  _159
REMARK   70  A    between atoms: _162  and  _164
REMARK   71  A    between atoms: _164  and  _165
REMARK   72  A    between atoms: _164  and  _167
REMARK   73  A    between atoms: _167  and  _168
REMARK   74  A    between atoms: _170  and  _172
REMARK   75  A    between atoms: _172  and  _173
REMARK   76  A    between atoms: _172  and  _175
REMARK   77  A    between atoms: _175  and  _176
REMARK   78  A    between atoms: _176  and  _177
REMARK   79  A    between atoms: _180  and  _182
REMARK   80  A    between atoms: _182  and  _183
REMARK   81  A    between atoms: _182  and  _185
REMARK   82  A    between atoms: _185  and  _186
REMARK   83  A    between atoms: _189  and  _191
REMARK   84  A    between atoms: _191  and  _192
REMARK   85  A    between atoms: _191  and  _194
REMARK   86  A    between atoms: _194  and  _195
REMARK   87  A    between atoms: _198  and  _200
REMARK   88  A    between atoms: _200  and  _201
REMARK   89  A    between atoms: _200  and  _203
REMARK   90  A    between atoms: _203  and  _204
REMARK   91  A    between atoms: _207  and  _209
REMARK   92  A    between atoms: _209  and  _210
REMARK   93  A    between atoms: _209  and  _212
REMARK   94  A    between atoms: _212  and  _213
REMARK   95  A    between atoms: _216  and  _218
REMARK   96  A    between atoms: _218  and  _219
REMARK   97  A    between atoms: _218  and  _221
REMARK   98  A    between atoms: _221  and  _222
REMARK   99  A    between atoms: _225  and  _227
REMARK  100  A    between atoms: _227  and  _228
REMARK  101  A    between atoms: _227  and  _230
REMARK  102  A    between atoms: _233  and  _235
REMARK  103  A    between atoms: _235  and  _236
REMARK  104  A    between atoms: _235  and  _238
REMARK  105  A    between atoms: _241  and  _243
REMARK  106  A    between atoms: _243  and  _244
REMARK  107  A    between atoms: _243  and  _246
REMARK  108  A    between atoms: _246  and  _247
REMARK  109  A    between atoms: _252  and  _254
REMARK  110  A    between atoms: _254  and  _255
REMARK  111  A    between atoms: _254  and  _257
REMARK  112  A    between atoms: _257  and  _258
REMARK  113  A    between atoms: _261  and  _263
REMARK  114  A    between atoms: _263  and  _264
REMARK  115  A    between atoms: _263  and  _266
REMARK  116  A    between atoms: _266  and  _267
REMARK  117  A    between atoms: _270  and  _272
REMARK  118  A    between atoms: _272  and  _273
REMARK  119  A    between atoms: _275  and  _277
REMARK  120  A    between atoms: _277  and  _278
REMARK  121  A    between atoms: _277  and  _280
REMARK  122  A    between atoms: _280  and  _281
REMARK  123  A    between atoms: _281  and  _282
REMARK  124  A    between atoms: _284  and  _286
REMARK  125  A    between atoms: _286  and  _287
REMARK  126  A    between atoms: _286  and  _289
REMARK  127  A    between atoms: _292  and  _294
REMARK  128  A    between atoms: _294  and  _295
REMARK  129  A    between atoms: _294  and  _297
REMARK  130  A    between atoms: _297  and  _298
REMARK  131  A    between atoms: _301  and  _303
REMARK  132  A    between atoms: _303  and  _304
REMARK  133  A    between atoms: _303  and  _306
REMARK  134  A    between atoms: _309  and  _311
REMARK  135  A    between atoms: _311  and  _312
REMARK  136  A    between atoms: _311  and  _314
REMARK  137  A    between atoms: _314  and  _315
REMARK  138  A    between atoms: _315  and  _316
REMARK  139  A    between atoms: _319  and  _321
REMARK  140  A    between atoms: _321  and  _322
REMARK  141  A    between atoms: _321  and  _324
REMARK  142  A    between atoms: _324  and  _325
REMARK  143  A    between atoms: _331  and  _333
REMARK  144  A    between atoms: _333  and  _334
REMARK  145  A    between atoms: _333  and  _336
REMARK  146  A    between atoms: _338  and  _340
REMARK  147  A    between atoms: _340  and  _341
REMARK  148  A    between atoms: _340  and  _343
REMARK  149  A    between atoms: _343  and  _344
REMARK  150  A    between atoms: _344  and  _345
REMARK  151  A    between atoms: _345  and  _346
REMARK  152  A    between atoms: _346  and  _347
REMARK  153  A    between atoms: _351  and  _353
REMARK  154  A    between atoms: _353  and  _354
REMARK  155  A    between atoms: _353  and  _356
REMARK  156  A    between atoms: _356  and  _357
REMARK  157  A    between atoms: _363  and  _365
REMARK  158  A    between atoms: _365  and  _366
REMARK  159  A    between atoms: _368  and  _370
REMARK  160  A    between atoms: _370  and  _371
REMARK  161  A    between atoms: _370  and  _373
REMARK  162  A    between atoms: _373  and  _374
REMARK  163  A    between atoms: _379  and  _381
REMARK  164  A    between atoms: _381  and  _382
REMARK  165  A    between atoms: _384  and  _386
REMARK  166  A    between atoms: _386  and  _387
REMARK  167  A    between atoms: _386  and  _389
REMARK  168  A    between atoms: _389  and  _390
REMARK  169  A    between atoms: _390  and  _391
REMARK  170  A    between atoms: _393  and  _395
REMARK  171  A    between atoms: _395  and  _396
REMARK  172  A    between atoms: _395  and  _398
REMARK  173  A    between atoms: _398  and  _399
REMARK  174  A    between atoms: _402  and  _404
REMARK  175  A    between atoms: _404  and  _405
REMARK  176  A    between atoms: _404  and  _407
REMARK  177  A    between atoms: _409  and  _411
REMARK  178  A    between atoms: _411  and  _412
REMARK  179  A    between atoms: _411  and  _414
REMARK  180  A    between atoms: _414  and  _415
REMARK  181  A    between atoms: _418  and  _420
REMARK  182  A    between atoms: _420  and  _421
REMARK  183  A    between atoms: _420  and  _423
REMARK  184  A    between atoms: _423  and  _424
REMARK  185  A    between atoms: _429  and  _431
REMARK  186  A    between atoms: _431  and  _432
REMARK  187  A    between atoms: _431  and  _434
REMARK  188  A    between atoms: _434  and  _435
REMARK  189  A    between atoms: _435  and  _436
REMARK  190  A    between atoms: _436  and  _437
REMARK  191  A    between atoms: _446  and  _448
REMARK  192  A    between atoms: _448  and  _449
REMARK  193  A    between atoms: _448  and  _451
REMARK  194  A    between atoms: _451  and  _452
REMARK  195  A    between atoms: _452  and  _453
REMARK  196  A    between atoms: _453  and  _454
REMARK  197  A    between atoms: _463  and  _465
REMARK  198  A    between atoms: _465  and  _466
REMARK  199  A    between atoms: _465  and  _468
REMARK  200  A    between atoms: _468  and  _469
REMARK  201  A    between atoms: _474  and  _476
REMARK  202  A    between atoms: _476  and  _477
REMARK  203  A    between atoms: _476  and  _479
REMARK  204  A    between atoms: _479  and  _480
REMARK  205  A    between atoms: _483  and  _485
REMARK  206  A    between atoms: _485  and  _486
REMARK  207  A    between atoms: _485  and  _488
REMARK  208  A    between atoms: _488  and  _489
REMARK  209  A    between atoms: _492  and  _494
REMARK  210  A    between atoms: _494  and  _495
REMARK  211  A    between atoms: _494  and  _497
REMARK  212  A    between atoms: _497  and  _498
REMARK  213  A    between atoms: _500  and  _502
REMARK  214  A    between atoms: _502  and  _503
REMARK  215  A    between atoms: _502  and  _505
REMARK  216  A    between atoms: _505  and  _506
REMARK  217  A    between atoms: _506  and  _507
REMARK  218  A    between atoms: _507  and  _508
REMARK  219  A    between atoms: _508  and  _509
REMARK  220  A    between atoms: _513  and  _515
REMARK  221  A    between atoms: _515  and  _516
REMARK  222  A    between atoms: _515  and  _518
REMARK  223  A    between atoms: _518  and  _519
REMARK  224  A    between atoms: _522  and  _524
REMARK  225  A    between atoms: _524  and  _525
REMARK  226  A    between atoms: _524  and  _527
REMARK  227  A    between atoms: _529  and  _531
REMARK  228  A    between atoms: _531  and  _532
REMARK  229  A    between atoms: _531  and  _534
REMARK  230  A    between atoms: _534  and  _535
REMARK  231  A    between atoms: _538  and  _540
REMARK  232  A    between atoms: _540  and  _541
REMARK  233  A    between atoms: _540  and  _543
REMARK  234  A    between atoms: _543  and  _544
REMARK  235  A    between atoms: _550  and  _552
REMARK  236  A    between atoms: _552  and  _553
REMARK  237  A    between atoms: _555  and  _557
REMARK  238  A    between atoms: _557  and  _558
REMARK  239  A    between atoms: _557  and  _560
REMARK  240  A    between atoms: _560  and  _561
REMARK  241  A    between atoms: _564  and  _566
REMARK  242  A    between atoms: _566  and  _567
REMARK  243  A    between atoms: _570  and  _572
REMARK  244  A    between atoms: _572  and  _573
REMARK  245  A    between atoms: _572  and  _575
REMARK  246  A    between atoms: _575  and  _576
REMARK  247  A    between atoms: _576  and  _577
REMARK  248  A    between atoms: _577  and  _578
REMARK                            x       y       z     vdW  Elec       q    Type
REMARK                         _______ _______ _______ _____ _____    ______ ____
ROOT
ATOM      1  CA  VAL A   4     -25.799  -0.463 -19.574  0.00  0.00    +0.149 C 
ENDROOT
BRANCH   1   4
ATOM      2  C   ALA A   3     -25.037   1.609 -18.622  0.00  0.00    +0.241 C 
ATOM      3  O   ALA A   3     -26.118   1.773 -18.050  0.00  0.00    -0.273 OA
ATOM      4  N   VAL A   4     -24.777   0.541 -19.358  0.00  0.00    -0.297 N 
ATOM      5  H   VAL A   4     -23.835   0.422 -19.783  0.00  0.00    +0.150 HD
BRANCH   2   6
ATOM      6  CA  ALA A   3     -23.926   2.652 -18.527  0.00  0.00    +0.149 C 
ATOM      7  CB  ALA A   3     -23.187   2.521 -17.188  0.00  0.00    +0.031 C 
BRANCH   6   9
ATOM      8  C   VAL A   2     -24.289   4.728 -19.732  0.00  0.00    +0.241 C 
ATOM      9  N   ALA A   3     -24.516   3.980 -18.657  0.00  0.00    -0.297 N 
ATOM     10  H   ALA A   3     -25.124   4.347 -17.897  0.00  0.00    +0.150 HD
ATOM     11  O   VAL A   2     -23.464   4.425 -20.590  0.00  0.00    -0.273 OA
BRANCH   8  12
ATOM     12  CA  VAL A   2     -25.096   6.017 -19.847  0.00  0.00    +0.148 C 
BRANCH  12  15
ATOM     13  C   THR A   1     -24.354   8.163 -20.718  0.00  0.00    +0.241 C 
ATOM     14  O   THR A   1     -24.614   8.735 -19.666  0.00  0.00    -0.274 OA
ATOM     15  N   VAL A   2     -24.555   6.862 -20.904  0.00  0.00    -0.297 N 
ATOM     16  H   VAL A   2     -24.321   6.438 -21.824  0.00  0.00    +0.150 HD
BRANCH  13  17
ATOM     17  CA  THR A   1     -23.794   8.942 -21.899  0.00  0.00    +0.172 C 
BRANCH  17  18
ATOM     18  N   THR A   1     -24.649  10.097 -22.124  0.00  0.00    -0.236 NA
ATOM     19  H   THR A   1     -24.297  11.049 -21.899  0.00  0.00    +0.142 HD
ENDBRANCH  17  18
BRANCH  17  20
ATOM     20  CB  THR A   1     -22.368   9.382 -21.574  0.00  0.00    +0.135 C 
ATOM     21  CG2 THR A   1     -21.446   8.173 -21.435  0.00  0.00    +0.034 C 
BRANCH  20  22
ATOM     22  OG1 THR A   1     -21.896  10.235 -22.625  0.00  0.00    -0.383 OA
ATOM     23  HG1 THR A   1     -21.907   9.739 -23.481  0.00  0.00    +0.210 HD
ENDBRANCH  20  22
ENDBRANCH  17  20
ENDBRANCH  13  17
ENDBRANCH  12  15
BRANCH  12  24
ATOM     24  CB  VAL A   2     -26.587   5.662 -20.117  0.00  0.00    +0.027 C 
ATOM     25  CG2 VAL A   2     -27.422   6.930 -20.130  0.00  0.00    +0.002 C 
ATOM     26  CG1 VAL A   2     -26.725   4.916 -21.460  0.00  0.00    +0.002 C 
ENDBRANCH  12  24
ENDBRANCH   8  12
ENDBRANCH   6   9
ENDBRANCH   2   6
ENDBRANCH   1   4
BRANCH   1  27
ATOM     27  C   VAL A   4     -25.282  -1.821 -19.109  0.00  0.00    +0.241 C 
ATOM     28  N   LYS A   5     -26.003  -2.417 -18.170  0.00  0.00    -0.297 N 
ATOM     29  H   LYS A   5     -26.816  -1.915 -17.760  0.00  0.00    +0.150 HD
ATOM     30  O   VAL A   4     -24.245  -2.304 -19.574  0.00  0.00    -0.273 OA
BRANCH  28  31
ATOM     31  CA  LYS A   5     -25.685  -3.758 -17.697  0.00  0.00    +0.149 C 
BRANCH  31  32
ATOM     32  C   LYS A   5     -26.494  -4.768 -18.495  0.00  0.00    +0.241 C 
ATOM     33  O   LYS A   5     -27.704  -4.622 -18.662  0.00  0.00    -0.273 OA
ATOM     34  N   MET A   6     -25.814  -5.796 -18.982  0.00  0.00    -0.298 N 
ATOM     35  H   MET A   6     -24.791  -5.858 -18.803  0.00  0.00    +0.150 HD
BRANCH  34  36
ATOM     36  CA  MET A   6     -26.461  -6.838 -19.759  0.00  0.00    +0.138 C 
BRANCH  36  37
ATOM     37  C   MET A   6     -25.636  -8.114 -19.634  0.00  0.00    +0.227 C 
ATOM     38  O   MET A   6     -24.559  -8.125 -19.039  0.00  0.00    -0.286 OA
ENDBRANCH  36  37
BRANCH  36  39
ATOM     39  CB  MET A   6     -26.558  -6.415 -21.234  0.00  0.00    +0.039 C 
BRANCH  39  40
ATOM     40  CG  MET A   6     -25.215  -6.097 -21.868  0.00  0.00    +0.060 C 
BRANCH  40  41
ATOM     41  SD  MET A   6     -25.340  -5.718 -23.637  0.00  0.00    -0.139 S 
ATOM     42  CE  MET A   6     -25.627  -7.379 -24.318  0.00  0.00    +0.069 C 
ENDBRANCH  40  41
ENDBRANCH  39  40
ENDBRANCH  36  39
ENDBRANCH  34  36
ENDBRANCH  31  32
BRANCH  31  43
ATOM     43  CB  LYS A   5     -26.019  -3.891 -16.211  0.00  0.00    +0.029 C 
BRANCH  43  44
ATOM     44  CG  LYS A   5     -25.557  -5.190 -15.558  0.00  0.00    +0.000 C 
BRANCH  44  45
ATOM     45  CD  LYS A   5     -25.578  -5.010 -14.043  0.00  0.00    -0.024 C 
BRANCH  45  46
ATOM     46  CE  LYS A   5     -25.320  -6.290 -13.287  0.00  0.00    -0.086 C 
BRANCH  46  47
ATOM     47  NZ  LYS A   5     -25.255  -5.997 -11.819  0.00  0.00    +0.380 N 
ATOM     48  HZ1 LYS A   5     -25.077  -6.879 -11.298  0.00  0.00    -0.089 HD
ATOM     49  HZ2 LYS A   5     -26.158  -5.586 -11.508  0.00  0.00    -0.089 HD
ATOM     50  HZ3 LYS A   5     -24.485  -5.323 -11.635  0.00  0.00    -0.089 HD
ENDBRANCH  46  47
ENDBRANCH  45  46
ENDBRANCH  44  45
ENDBRANCH  43  44
ENDBRANCH  31  43
ENDBRANCH  28  31
ENDBRANCH   1  27
BRANCH   1  51
ATOM     51  CB  VAL A   4     -26.210  -0.523 -21.079  0.00  0.00    +0.027 C 
ATOM     52  CG2 VAL A   4     -27.208  -1.641 -21.316  0.00  0.00    +0.002 C 
ATOM     53  CG1 VAL A   4     -24.994  -0.735 -21.939  0.00  0.00    +0.002 C 
ENDBRANCH   1  51
TORSDOF 24
REMARK  Name = ../refined-set-2016/4ase/4ase_pocket.pdb
REMARK  248 active torsions:
REMARK  status: ('A' for Active; 'I' for Inactive)
REMARK    1  A    between atoms: _1  and  _3
REMARK    2  A    between atoms: _3  and  _4
REMARK    3  A    between atoms: _3  and  _6
REMARK    4  A    between atoms: _6  and  _7
REMARK    5  A    between atoms: _10  and  _12
REMARK    6  A    between atoms: _12  and  _13
REMARK    7  A    between atoms: _12  and  _15
REMARK    8  A    between atoms: _15  and  _16
REMARK    9  A    between atoms: _16  and  _17
REMARK   10  A    between atoms: _17  and  _18
REMARK   11  A    between atoms: _18  and  _19
REMARK   12  A    between atoms: _24  and  _25
REMARK   13  A    between atoms: _30  and  _32
REMARK   14  A    between atoms: _32  and  _33
REMARK   15  A    between atoms: _32  and  _35
REMARK   16  A    between atoms: _35  and  _36
REMARK   17  A    between atoms: _39  and  _41
REMARK   18  A    between atoms: _41  and  _42
REMARK   19  A    between atoms: _44  and  _46
REMARK   20  A    between atoms: _46  and  _47
REMARK   21  A    between atoms: _46  and  _49
REMARK   22  A    between atoms: _49  and  _50
REMARK   23  A    between atoms: _50  and  _51
REMARK   24  A    between atoms: _51  and  _52
REMARK   25  A    between atoms: _61  and  _63
REMARK   26  A    between atoms: _63  and  _64
REMARK   27  A    between atoms: _63  and  _66
REMARK   28  A    between atoms: _66  and  _67
REMARK   29  A    between atoms: _67  and  _68
REMARK   30  A    between atoms: _73  and  _75
REMARK   31  A    between atoms: _75  and  _76
REMARK   32  A    between atoms: _75  and  _78
REMARK   33  A    between atoms: _81  and  _83
REMARK   34  A    between atoms: _83  and  _84
REMARK   35  A    between atoms: _83  and  _86
REMARK   36  A    between atoms: _86  and  _87
REMARK   37  A    between atoms: _90  and  _92
REMARK   38  A    between atoms: _92  and  _93
REMARK   39  A    between atoms: _92  and  _95
REMARK   40  A    between atoms: _95  and  _96
REMARK   41  A    between atoms: _96  and  _97
REMARK   42  A    between atoms: _100  and  _102
REMARK   43  A    between atoms: _102  and  _103
REMARK   44  A    between atoms: _102  and  _105
REMARK   45  A    between atoms: _105  and  _106
REMARK   46  A    between atoms: _109  and  _111
REMARK   47  A    between atoms: _111  and  _112
REMARK   48  A    between atoms: _111  and  _114
REMARK   49  A    between atoms: _117  and  _119
REMARK   50  A    between atoms: _119  and  _120
REMARK   51  A    between atoms: _123  and  _125
REMARK   52  A    between atoms: _125  and  _126
REMARK   53  A    between atoms: _125  and  _128
REMARK   54  A    between atoms: _131  and  _133
REMARK   55  A    between atoms: _133  and  _134
REMARK   56  A    between atoms: _133  and  _136
REMARK   57  A    between atoms: _136  and  _137
REMARK   58  A    between atoms: _137  and  _138
REMARK   59  A    between atoms: _138  and  _139
REMARK   60  A    between atoms: _139  and  _140
REMARK   61  A    between atoms: _144  and  _146
REMARK   62  A    between atoms: _146  and  _147
REMARK   63  A    between atoms: _146  and  _149
REMARK   64  A    between atoms: _149  and  _150
REMARK   65  A    between atoms: _150  and  _151
REMARK   66  A    between atoms: _153  and  _155
REMARK   67  A    between atoms: _155  and  _156
REMARK   68  A    between atoms: _155  and  _158
REMARK   69  A    between atoms: _158  and  _159
REMARK   70  A    between atoms: _162  and  _164
REMARK   71  A    between atoms: _164  and  _165
REMARK   72  A    between atoms: _164  and  _167
REMARK   73  A    between atoms: _167  and  _168
REMARK   74  A    between atoms: _170  and  _172
REMARK   75  A    between atoms: _172  and  _173
REMARK   76  A    between atoms: _172  and  _175
REMARK   77  A    between atoms: _175  and  _176
REMARK   78  A    between atoms: _176  and  _177
REMARK   79  A    between atoms: _180  and  _182
REMARK   80  A    between atoms: _182  and  _183
REMARK   81  A    between atoms: _182  and  _185
REMARK   82  A    between atoms: _185  and  _186
REMARK   83  A    between atoms: _189  and  _191
REMARK   84  A    between atoms: _191  and  _192
REMARK   85  A    between atoms: _191  and  _194
REMARK   86  A    between atoms: _194  and  _195
REMARK   87  A    between atoms: _198  and  _200
REMARK   88  A    between atoms: _200  and  _201
REMARK   89  A    between atoms: _200  and  _203
REMARK   90  A    between atoms: _203  and  _204
REMARK   91  A    between atoms: _207  and  _209
REMARK   92  A    between atoms: _209  and  _210
REMARK   93  A    between atoms: _209  and  _212
REMARK   94  A    between atoms: _212  and  _213
REMARK   95  A    between atoms: _216  and  _218
REMARK   96  A    between atoms: _218  and  _219
REMARK   97  A    between atoms: _218  and  _221
REMARK   98  A    between atoms: _221  and  _222
REMARK   99  A    between atoms: _225  and  _227
REMARK  100  A    between atoms: _227  and  _228
REMARK  101  A    between atoms: _227  and  _230
REMARK  102  A    between atoms: _233  and  _235
REMARK  103  A    between atoms: _235  and  _236
REMARK  104  A    between atoms: _235  and  _238
REMARK  105  A    between atoms: _241  and  _243
REMARK  106  A    between atoms: _243  and  _244
REMARK  107  A    between atoms: _243  and  _246
REMARK  108  A    between atoms: _246  and  _247
REMARK  109  A    between atoms: _252  and  _254
REMARK  110  A    between atoms: _254  and  _255
REMARK  111  A    between atoms: _254  and  _257
REMARK  112  A    between atoms: _257  and  _258
REMARK  113  A    between atoms: _261  and  _263
REMARK  114  A    between atoms: _263  and  _264
REMARK  115  A    between atoms: _263  and  _266
REMARK  116  A    between atoms: _266  and  _267
REMARK  117  A    between atoms: _270  and  _272
REMARK  118  A    between atoms: _272  and  _273
REMARK  119  A    between atoms: _275  and  _277
REMARK  120  A    between atoms: _277  and  _278
REMARK  121  A    between atoms: _277  and  _280
REMARK  122  A    between atoms: _280  and  _281
REMARK  123  A    between atoms: _281  and  _282
REMARK  124  A    between atoms: _284  and  _286
REMARK  125  A    between atoms: _286  and  _287
REMARK  126  A    between atoms: _286  and  _289
REMARK  127  A    between atoms: _292  and  _294
REMARK  128  A    between atoms: _294  and  _295
REMARK  129  A    between atoms: _294  and  _297
REMARK  130  A    between atoms: _297  and  _298
REMARK  131  A    between atoms: _301  and  _303
REMARK  132  A    between atoms: _303  and  _304
REMARK  133  A    between atoms: _303  and  _306
REMARK  134  A    between atoms: _309  and  _311
REMARK  135  A    between atoms: _311  and  _312
REMARK  136  A    between atoms: _311  and  _314
REMARK  137  A    between atoms: _314  and  _315
REMARK  138  A    between atoms: _315  and  _316
REMARK  139  A    between atoms: _319  and  _321
REMARK  140  A    between atoms: _321  and  _322
REMARK  141  A    between atoms: _321  and  _324
REMARK  142  A    between atoms: _324  and  _325
REMARK  143  A    between atoms: _331  and  _333
REMARK  144  A    between atoms: _333  and  _334
REMARK  145  A    between atoms: _333  and  _336
REMARK  146  A    between atoms: _338  and  _340
REMARK  147  A    between atoms: _340  and  _341
REMARK  148  A    between atoms: _340  and  _343
REMARK  149  A    between atoms: _343  and  _344
REMARK  150  A    between atoms: _344  and  _345
REMARK  151  A    between atoms: _345  and  _346
REMARK  152  A    between atoms: _346  and  _347
REMARK  153  A    between atoms: _351  and  _353
REMARK  154  A    between atoms: _353  and  _354
REMARK  155  A    between atoms: _353  and  _356
REMARK  156  A    between atoms: _356  and  _357
REMARK  157  A    between atoms: _363  and  _365
REMARK  158  A    between atoms: _365  and  _366
REMARK  159  A    between atoms: _368  and  _370
REMARK  160  A    between atoms: _370  and  _371
REMARK  161  A    between atoms: _370  and  _373
REMARK  162  A    between atoms: _373  and  _374
REMARK  163  A    between atoms: _379  and  _381
REMARK  164  A    between atoms: _381  and  _382
REMARK  165  A    between atoms: _384  and  _386
REMARK  166  A    between atoms: _386  and  _387
REMARK  167  A    between atoms: _386  and  _389
REMARK  168  A    between atoms: _389  and  _390
REMARK  169  A    between atoms: _390  and  _391
REMARK  170  A    between atoms: _393  and  _395
REMARK  171  A    between atoms: _395  and  _396
REMARK  172  A    between atoms: _395  and  _398
REMARK  173  A    between atoms: _398  and  _399
REMARK  174  A    between atoms: _402  and  _404
REMARK  175  A    between atoms: _404  and  _405
REMARK  176  A    between atoms: _404  and  _407
REMARK  177  A    between atoms: _409  and  _411
REMARK  178  A    between atoms: _411  and  _412
REMARK  179  A    between atoms: _411  and  _414
REMARK  180  A    between atoms: _414  and  _415
REMARK  181  A    between atoms: _418  and  _420
REMARK  182  A    between atoms: _420  and  _421
REMARK  183  A    between atoms: _420  and  _423
REMARK  184  A    between atoms: _423  and  _424
REMARK  185  A    between atoms: _429  and  _431
REMARK  186  A    between atoms: _431  and  _432
REMARK  187  A    between atoms: _431  and  _434
REMARK  188  A    between atoms: _434  and  _435
REMARK  189  A    between atoms: _435  and  _436
REMARK  190  A    between atoms: _436  and  _437
REMARK  191  A    between atoms: _446  and  _448
REMARK  192  A    between atoms: _448  and  _449
REMARK  193  A    between atoms: _448  and  _451
REMARK  194  A    between atoms: _451  and  _452
REMARK  195  A    between atoms: _452  and  _453
REMARK  196  A    between atoms: _453  and  _454
REMARK  197  A    between atoms: _463  and  _465
REMARK  198  A    between atoms: _465  and  _466
REMARK  199  A    between atoms: _465  and  _468
REMARK  200  A    between atoms: _468  and  _469
REMARK  201  A    between atoms: _474  and  _476
REMARK  202  A    between atoms: _476  and  _477
REMARK  203  A    between atoms: _476  and  _479
REMARK  204  A    between atoms: _479  and  _480
REMARK  205  A    between atoms: _483  and  _485
REMARK  206  A    between atoms: _485  and  _486
REMARK  207  A    between atoms: _485  and  _488
REMARK  208  A    between atoms: _488  and  _489
REMARK  209  A    between atoms: _492  and  _494
REMARK  210  A    between atoms: _494  and  _495
REMARK  211  A    between atoms: _494  and  _497
REMARK  212  A    between atoms: _497  and  _498
REMARK  213  A    between atoms: _500  and  _502
REMARK  214  A    between atoms: _502  and  _503
REMARK  215  A    between atoms: _502  and  _505
REMARK  216  A    between atoms: _505  and  _506
REMARK  217  A    between atoms: _506  and  _507
REMARK  218  A    between atoms: _507  and  _508
REMARK  219  A    between atoms: _508  and  _509
REMARK  220  A    between atoms: _513  and  _515
REMARK  221  A    between atoms: _515  and  _516
REMARK  222  A    between atoms: _515  and  _518
REMARK  223  A    between atoms: _518  and  _519
REMARK  224  A    between atoms: _522  and  _524
REMARK  225  A    between atoms: _524  and  _525
REMARK  226  A    between atoms: _524  and  _527
REMARK  227  A    between atoms: _529  and  _531
REMARK  228  A    between atoms: _531  and  _532
REMARK  229  A    between atoms: _531  and  _534
REMARK  230  A    between atoms: _534  and  _535
REMARK  231  A    between atoms: _538  and  _540
REMARK  232  A    between atoms: _540  and  _541
REMARK  233  A    between atoms: _540  and  _543
REMARK  234  A    between atoms: _543  and  _544
REMARK  235  A    between atoms: _550  and  _552
REMARK  236  A    between atoms: _552  and  _553
REMARK  237  A    between atoms: _555  and  _557
REMARK  238  A    between atoms: _557  and  _558
REMARK  239  A    between atoms: _557  and  _560
REMARK  240  A    between atoms: _560  and  _561
REMARK  241  A    between atoms: _564  and  _566
REMARK  242  A    between atoms: _566  and  _567
REMARK  243  A    between atoms: _570  and  _572
REMARK  244  A    between atoms: _572  and  _573
REMARK  245  A    between atoms: _572  and  _575
REMARK  246  A    between atoms: _575  and  _576
REMARK  247  A    between atoms: _576  and  _577
REMARK  248  A    between atoms: _577  and  _578
REMARK                            x       y       z     vdW  Elec       q    Type
REMARK                         _______ _______ _______ _____ _____    ______ ____
ROOT
ATOM      1  CA  LEU A   1     -31.039  -9.397 -14.180  0.00  0.00    +0.133 C 
ENDROOT
BRANCH   1   2
ATOM      2  N   LEU A   1     -31.183 -10.777 -13.730  0.00  0.00    -0.239 NA
ATOM      3  H   LEU A   1     -31.027 -11.552 -14.406  0.00  0.00    +0.142 HD
ENDBRANCH   1   2
BRANCH   1   4
ATOM      4  C   LEU A   1     -32.398  -8.712 -14.160  0.00  0.00    +0.224 C 
ATOM      5  O   LEU A   1     -32.506  -7.538 -13.807  0.00  0.00    -0.287 OA
ENDBRANCH   1   4
BRANCH   1   6
ATOM      6  CB  LEU A   1     -30.434  -9.360 -15.590  0.00  0.00    +0.025 C 
BRANCH   6   7
ATOM      7  CG  LEU A   1     -30.151  -7.972 -16.187  0.00  0.00    +0.002 C 
ATOM      8  CD2 LEU A   1     -29.271  -7.166 -15.232  0.00  0.00    +0.000 C 
ATOM      9  CD1 LEU A   1     -29.462  -8.125 -17.541  0.00  0.00    +0.000 C 
ENDBRANCH   6   7
ENDBRANCH   1   6
TORSDOF 4
REMARK  Name = ../refined-set-2016/4ase/4ase_pocket.pdb
REMARK  248 active torsions:
REMARK  status: ('A' for Active; 'I' for Inactive)
REMARK    1  A    between atoms: _1  and  _3
REMARK    2  A    between atoms: _3  and  _4
REMARK    3  A    between atoms: _3  and  _6
REMARK    4  A    between atoms: _6  and  _7
REMARK    5  A    between atoms: _10  and  _12
REMARK    6  A    between atoms: _12  and  _13
REMARK    7  A    between atoms: _12  and  _15
REMARK    8  A    between atoms: _15  and  _16
REMARK    9  A    between atoms: _16  and  _17
REMARK   10  A    between atoms: _17  and  _18
REMARK   11  A    between atoms: _18  and  _19
REMARK   12  A    between atoms: _24  and  _25
REMARK   13  A    between atoms: _30  and  _32
REMARK   14  A    between atoms: _32  and  _33
REMARK   15  A    between atoms: _32  and  _35
REMARK   16  A    between atoms: _35  and  _36
REMARK   17  A    between atoms: _39  and  _41
REMARK   18  A    between atoms: _41  and  _42
REMARK   19  A    between atoms: _44  and  _46
REMARK   20  A    between atoms: _46  and  _47
REMARK   21  A    between atoms: _46  and  _49
REMARK   22  A    between atoms: _49  and  _50
REMARK   23  A    between atoms: _50  and  _51
REMARK   24  A    between atoms: _51  and  _52
REMARK   25  A    between atoms: _61  and  _63
REMARK   26  A    between atoms: _63  and  _64
REMARK   27  A    between atoms: _63  and  _66
REMARK   28  A    between atoms: _66  and  _67
REMARK   29  A    between atoms: _67  and  _68
REMARK   30  A    between atoms: _73  and  _75
REMARK   31  A    between atoms: _75  and  _76
REMARK   32  A    between atoms: _75  and  _78
REMARK   33  A    between atoms: _81  and  _83
REMARK   34  A    between atoms: _83  and  _84
REMARK   35  A    between atoms: _83  and  _86
REMARK   36  A    between atoms: _86  and  _87
REMARK   37  A    between atoms: _90  and  _92
REMARK   38  A    between atoms: _92  and  _93
REMARK   39  A    between atoms: _92  and  _95
REMARK   40  A    between atoms: _95  and  _96
REMARK   41  A    between atoms: _96  and  _97
REMARK   42  A    between atoms: _100  and  _102
REMARK   43  A    between atoms: _102  and  _103
REMARK   44  A    between atoms: _102  and  _105
REMARK   45  A    between atoms: _105  and  _106
REMARK   46  A    between atoms: _109  and  _111
REMARK   47  A    between atoms: _111  and  _112
REMARK   48  A    between atoms: _111  and  _114
REMARK   49  A    between atoms: _117  and  _119
REMARK   50  A    between atoms: _119  and  _120
REMARK   51  A    between atoms: _123  and  _125
REMARK   52  A    between atoms: _125  and  _126
REMARK   53  A    between atoms: _125  and  _128
REMARK   54  A    between atoms: _131  and  _133
REMARK   55  A    between atoms: _133  and  _134
REMARK   56  A    between atoms: _133  and  _136
REMARK   57  A    between atoms: _136  and  _137
REMARK   58  A    between atoms: _137  and  _138
REMARK   59  A    between atoms: _138  and  _139
REMARK   60  A    between atoms: _139  and  _140
REMARK   61  A    between atoms: _144  and  _146
REMARK   62  A    between atoms: _146  and  _147
REMARK   63  A    between atoms: _146  and  _149
REMARK   64  A    between atoms: _149  and  _150
REMARK   65  A    between atoms: _150  and  _151
REMARK   66  A    between atoms: _153  and  _155
REMARK   67  A    between atoms: _155  and  _156
REMARK   68  A    between atoms: _155  and  _158
REMARK   69  A    between atoms: _158  and  _159
REMARK   70  A    between atoms: _162  and  _164
REMARK   71  A    between atoms: _164  and  _165
REMARK   72  A    between atoms: _164  and  _167
REMARK   73  A    between atoms: _167  and  _168
REMARK   74  A    between atoms: _170  and  _172
REMARK   75  A    between atoms: _172  and  _173
REMARK   76  A    between atoms: _172  and  _175
REMARK   77  A    between atoms: _175  and  _176
REMARK   78  A    between atoms: _176  and  _177
REMARK   79  A    between atoms: _180  and  _182
REMARK   80  A    between atoms: _182  and  _183
REMARK   81  A    between atoms: _182  and  _185
REMARK   82  A    between atoms: _185  and  _186
REMARK   83  A    between atoms: _189  and  _191
REMARK   84  A    between atoms: _191  and  _192
REMARK   85  A    between atoms: _191  and  _194
REMARK   86  A    between atoms: _194  and  _195
REMARK   87  A    between atoms: _198  and  _200
REMARK   88  A    between atoms: _200  and  _201
REMARK   89  A    between atoms: _200  and  _203
REMARK   90  A    between atoms: _203  and  _204
REMARK   91  A    between atoms: _207  and  _209
REMARK   92  A    between atoms: _209  and  _210
REMARK   93  A    between atoms: _209  and  _212
REMARK   94  A    between atoms: _212  and  _213
REMARK   95  A    between atoms: _216  and  _218
REMARK   96  A    between atoms: _218  and  _219
REMARK   97  A    between atoms: _218  and  _221
REMARK   98  A    between atoms: _221  and  _222
REMARK   99  A    between atoms: _225  and  _227
REMARK  100  A    between atoms: _227  and  _228
REMARK  101  A    between atoms: _227  and  _230
REMARK  102  A    between atoms: _233  and  _235
REMARK  103  A    between atoms: _235  and  _236
REMARK  104  A    between atoms: _235  and  _238
REMARK  105  A    between atoms: _241  and  _243
REMARK  106  A    between atoms: _243  and  _244
REMARK  107  A    between atoms: _243  and  _246
REMARK  108  A    between atoms: _246  and  _247
REMARK  109  A    between atoms: _252  and  _254
REMARK  110  A    between atoms: _254  and  _255
REMARK  111  A    between atoms: _254  and  _257
REMARK  112  A    between atoms: _257  and  _258
REMARK  113  A    between atoms: _261  and  _263
REMARK  114  A    between atoms: _263  and  _264
REMARK  115  A    between atoms: _263  and  _266
REMARK  116  A    between atoms: _266  and  _267
REMARK  117  A    between atoms: _270  and  _272
REMARK  118  A    between atoms: _272  and  _273
REMARK  119  A    between atoms: _275  and  _277
REMARK  120  A    between atoms: _277  and  _278
REMARK  121  A    between atoms: _277  and  _280
REMARK  122  A    between atoms: _280  and  _281
REMARK  123  A    between atoms: _281  and  _282
REMARK  124  A    between atoms: _284  and  _286
REMARK  125  A    between atoms: _286  and  _287
REMARK  126  A    between atoms: _286  and  _289
REMARK  127  A    between atoms: _292  and  _294
REMARK  128  A    between atoms: _294  and  _295
REMARK  129  A    between atoms: _294  and  _297
REMARK  130  A    between atoms: _297  and  _298
REMARK  131  A    between atoms: _301  and  _303
REMARK  132  A    between atoms: _303  and  _304
REMARK  133  A    between atoms: _303  and  _306
REMARK  134  A    between atoms: _309  and  _311
REMARK  135  A    between atoms: _311  and  _312
REMARK  136  A    between atoms: _311  and  _314
REMARK  137  A    between atoms: _314  and  _315
REMARK  138  A    between atoms: _315  and  _316
REMARK  139  A    between atoms: _319  and  _321
REMARK  140  A    between atoms: _321  and  _322
REMARK  141  A    between atoms: _321  and  _324
REMARK  142  A    between atoms: _324  and  _325
REMARK  143  A    between atoms: _331  and  _333
REMARK  144  A    between atoms: _333  and  _334
REMARK  145  A    between atoms: _333  and  _336
REMARK  146  A    between atoms: _338  and  _340
REMARK  147  A    between atoms: _340  and  _341
REMARK  148  A    between atoms: _340  and  _343
REMARK  149  A    between atoms: _343  and  _344
REMARK  150  A    between atoms: _344  and  _345
REMARK  151  A    between atoms: _345  and  _346
REMARK  152  A    between atoms: _346  and  _347
REMARK  153  A    between atoms: _351  and  _353
REMARK  154  A    between atoms: _353  and  _354
REMARK  155  A    between atoms: _353  and  _356
REMARK  156  A    between atoms: _356  and  _357
REMARK  157  A    between atoms: _363  and  _365
REMARK  158  A    between atoms: _365  and  _366
REMARK  159  A    between atoms: _368  and  _370
REMARK  160  A    between atoms: _370  and  _371
REMARK  161  A    between atoms: _370  and  _373
REMARK  162  A    between atoms: _373  and  _374
REMARK  163  A    between atoms: _379  and  _381
REMARK  164  A    between atoms: _381  and  _382
REMARK  165  A    between atoms: _384  and  _386
REMARK  166  A    between atoms: _386  and  _387
REMARK  167  A    between atoms: _386  and  _389
REMARK  168  A    between atoms: _389  and  _390
REMARK  169  A    between atoms: _390  and  _391
REMARK  170  A    between atoms: _393  and  _395
REMARK  171  A    between atoms: _395  and  _396
REMARK  172  A    between atoms: _395  and  _398
REMARK  173  A    between atoms: _398  and  _399
REMARK  174  A    between atoms: _402  and  _404
REMARK  175  A    between atoms: _404  and  _405
REMARK  176  A    between atoms: _404  and  _407
REMARK  177  A    between atoms: _409  and  _411
REMARK  178  A    between atoms: _411  and  _412
REMARK  179  A    between atoms: _411  and  _414
REMARK  180  A    between atoms: _414  and  _415
REMARK  181  A    between atoms: _418  and  _420
REMARK  182  A    between atoms: _420  and  _421
REMARK  183  A    between atoms: _420  and  _423
REMARK  184  A    between atoms: _423  and  _424
REMARK  185  A    between atoms: _429  and  _431
REMARK  186  A    between atoms: _431  and  _432
REMARK  187  A    between atoms: _431  and  _434
REMARK  188  A    between atoms: _434  and  _435
REMARK  189  A    between atoms: _435  and  _436
REMARK  190  A    between atoms: _436  and  _437
REMARK  191  A    between atoms: _446  and  _448
REMARK  192  A    between atoms: _448  and  _449
REMARK  193  A    between atoms: _448  and  _451
REMARK  194  A    between atoms: _451  and  _452
REMARK  195  A    between atoms: _452  and  _453
REMARK  196  A    between atoms: _453  and  _454
REMARK  197  A    between atoms: _463  and  _465
REMARK  198  A    between atoms: _465  and  _466
REMARK  199  A    between atoms: _465  and  _468
REMARK  200  A    between atoms: _468  and  _469
REMARK  201  A    between atoms: _474  and  _476
REMARK  202  A    between atoms: _476  and  _477
REMARK  203  A    between atoms: _476  and  _479
REMARK  204  A    between atoms: _479  and  _480
REMARK  205  A    between atoms: _483  and  _485
REMARK  206  A    between atoms: _485  and  _486
REMARK  207  A    between atoms: _485  and  _488
REMARK  208  A    between atoms: _488  and  _489
REMARK  209  A    between atoms: _492  and  _494
REMARK  210  A    between atoms: _494  and  _495
REMARK  211  A    between atoms: _494  and  _497
REMARK  212  A    between atoms: _497  and  _498
REMARK  213  A    between atoms: _500  and  _502
REMARK  214  A    between atoms: _502  and  _503
REMARK  215  A    between atoms: _502  and  _505
REMARK  216  A    between atoms: _505  and  _506
REMARK  217  A    between atoms: _506  and  _507
REMARK  218  A    between atoms: _507  and  _508
REMARK  219  A    between atoms: _508  and  _509
REMARK  220  A    between atoms: _513  and  _515
REMARK  221  A    between atoms: _515  and  _516
REMARK  222  A    between atoms: _515  and  _518
REMARK  223  A    between atoms: _518  and  _519
REMARK  224  A    between atoms: _522  and  _524
REMARK  225  A    between atoms: _524  and  _525
REMARK  226  A    between atoms: _524  and  _527
REMARK  227  A    between atoms: _529  and  _531
REMARK  228  A    between atoms: _531  and  _532
REMARK  229  A    between atoms: _531  and  _534
REMARK  230  A    between atoms: _534  and  _535
REMARK  231  A    between atoms: _538  and  _540
REMARK  232  A    between atoms: _540  and  _541
REMARK  233  A    between atoms: _540  and  _543
REMARK  234  A    between atoms: _543  and  _544
REMARK  235  A    between atoms: _550  and  _552
REMARK  236  A    between atoms: _552  and  _553
REMARK  237  A    between atoms: _555  and  _557
REMARK  238  A    between atoms: _557  and  _558
REMARK  239  A    between atoms: _557  and  _560
REMARK  240  A    between atoms: _560  and  _561
REMARK  241  A    between atoms: _564  and  _566
REMARK  242  A    between atoms: _566  and  _567
REMARK  243  A    between atoms: _570  and  _572
REMARK  244  A    between atoms: _572  and  _573
REMARK  245  A    between atoms: _572  and  _575
REMARK  246  A    between atoms: _575  and  _576
REMARK  247  A    between atoms: _576  and  _577
REMARK  248  A    between atoms: _577  and  _578
REMARK                            x       y       z     vdW  Elec       q    Type
REMARK                         _______ _______ _______ _____ _____    ______ ____
ROOT
ATOM      1  CA  GLU A   2     -32.266  -6.596 -10.309  0.00  0.00    +0.149 C 
ENDROOT
BRANCH   1   4
ATOM      2  C   SER A   1     -34.308  -7.899 -10.197  0.00  0.00    +0.241 C 
ATOM      3  O   SER A   1     -34.833  -7.077  -9.452  0.00  0.00    -0.274 OA
ATOM      4  N   GLU A   2     -33.059  -7.772 -10.639  0.00  0.00    -0.297 N 
ATOM      5  H   GLU A   2     -32.644  -8.522 -11.228  0.00  0.00    +0.150 HD
BRANCH   2   6
ATOM      6  CA  SER A   1     -35.077  -9.135 -10.654  0.00  0.00    +0.174 C 
BRANCH   6   7
ATOM      7  N   SER A   1     -34.810  -9.418 -12.064  0.00  0.00    -0.236 NA
ATOM      8  H   SER A   1     -34.328 -10.300 -12.332  0.00  0.00    +0.142 HD
ENDBRANCH   6   7
BRANCH   6   9
ATOM      9  CB  SER A   1     -34.687 -10.325  -9.769  0.00  0.00    +0.163 C 
BRANCH   9  10
ATOM     10  OG  SER A   1     -35.547 -11.424 -10.003  0.00  0.00    -0.380 OA
ATOM     11  H   SER A   1     -35.279 -12.180  -9.423  0.00  0.00    +0.211 HD
ENDBRANCH   9  10
ENDBRANCH   6   9
ENDBRANCH   2   6
ENDBRANCH   1   4
BRANCH   1  12
ATOM     12  C   GLU A   2     -32.978  -5.327 -10.792  0.00  0.00    +0.241 C 
ATOM     13  O   GLU A   2     -33.068  -4.334 -10.062  0.00  0.00    -0.273 OA
ATOM     14  N   LEU A   3     -33.485  -5.367 -12.020  0.00  0.00    -0.298 N 
ATOM     15  H   LEU A   3     -33.364  -6.224 -12.597  0.00  0.00    +0.150 HD
BRANCH  14  16
ATOM     16  CA  LEU A   3     -34.211  -4.222 -12.573  0.00  0.00    +0.137 C 
BRANCH  16  17
ATOM     17  C   LEU A   3     -35.398  -3.863 -11.679  0.00  0.00    +0.227 C 
ATOM     18  O   LEU A   3     -35.603  -2.696 -11.346  0.00  0.00    -0.286 OA
ENDBRANCH  16  17
BRANCH  16  19
ATOM     19  CB  LEU A   3     -34.698  -4.539 -13.989  0.00  0.00    +0.028 C 
BRANCH  19  20
ATOM     20  CG  LEU A   3     -35.620  -3.537 -14.698  0.00  0.00    +0.002 C 
ATOM     21  CD2 LEU A   3     -34.993  -2.148 -14.690  0.00  0.00    +0.000 C 
ATOM     22  CD1 LEU A   3     -35.865  -4.013 -16.136  0.00  0.00    +0.000 C 
ENDBRANCH  19  20
ENDBRANCH  16  19
ENDBRANCH  14  16
ENDBRANCH   1  12
BRANCH   1  23
ATOM     23  CB  GLU A   2     -30.877  -6.688 -10.956  0.00  0.00    +0.041 C 
BRANCH  23  24
ATOM     24  CG  GLU A   2     -30.038  -5.429 -10.766  0.00  0.00    +0.116 C 
BRANCH  24  25
ATOM     25  CD  GLU A   2     -28.686  -5.507 -11.452  0.00  0.00    +0.365 C 
ATOM     26  OE2 GLU A   2     -28.074  -4.438 -11.685  0.00  0.00    -0.246 OA
ATOM     27  OE1 GLU A   2     -28.239  -6.634 -11.761  0.00  0.00    -0.246 OA
ENDBRANCH  24  25
ENDBRANCH  23  24
ENDBRANCH   1  23
TORSDOF 13
REMARK  Name = ../refined-set-2016/4ase/4ase_pocket.pdb
REMARK  248 active torsions:
REMARK  status: ('A' for Active; 'I' for Inactive)
REMARK    1  A    between atoms: _1  and  _3
REMARK    2  A    between atoms: _3  and  _4
REMARK    3  A    between atoms: _3  and  _6
REMARK    4  A    between atoms: _6  and  _7
REMARK    5  A    between atoms: _10  and  _12
REMARK    6  A    between atoms: _12  and  _13
REMARK    7  A    between atoms: _12  and  _15
REMARK    8  A    between atoms: _15  and  _16
REMARK    9  A    between atoms: _16  and  _17
REMARK   10  A    between atoms: _17  and  _18
REMARK   11  A    between atoms: _18  and  _19
REMARK   12  A    between atoms: _24  and  _25
REMARK   13  A    between atoms: _30  and  _32
REMARK   14  A    between atoms: _32  and  _33
REMARK   15  A    between atoms: _32  and  _35
REMARK   16  A    between atoms: _35  and  _36
REMARK   17  A    between atoms: _39  and  _41
REMARK   18  A    between atoms: _41  and  _42
REMARK   19  A    between atoms: _44  and  _46
REMARK   20  A    between atoms: _46  and  _47
REMARK   21  A    between atoms: _46  and  _49
REMARK   22  A    between atoms: _49  and  _50
REMARK   23  A    between atoms: _50  and  _51
REMARK   24  A    between atoms: _51  and  _52
REMARK   25  A    between atoms: _61  and  _63
REMARK   26  A    between atoms: _63  and  _64
REMARK   27  A    between atoms: _63  and  _66
REMARK   28  A    between atoms: _66  and  _67
REMARK   29  A    between atoms: _67  and  _68
REMARK   30  A    between atoms: _73  and  _75
REMARK   31  A    between atoms: _75  and  _76
REMARK   32  A    between atoms: _75  and  _78
REMARK   33  A    between atoms: _81  and  _83
REMARK   34  A    between atoms: _83  and  _84
REMARK   35  A    between atoms: _83  and  _86
REMARK   36  A    between atoms: _86  and  _87
REMARK   37  A    between atoms: _90  and  _92
REMARK   38  A    between atoms: _92  and  _93
REMARK   39  A    between atoms: _92  and  _95
REMARK   40  A    between atoms: _95  and  _96
REMARK   41  A    between atoms: _96  and  _97
REMARK   42  A    between atoms: _100  and  _102
REMARK   43  A    between atoms: _102  and  _103
REMARK   44  A    between atoms: _102  and  _105
REMARK   45  A    between atoms: _105  and  _106
REMARK   46  A    between atoms: _109  and  _111
REMARK   47  A    between atoms: _111  and  _112
REMARK   48  A    between atoms: _111  and  _114
REMARK   49  A    between atoms: _117  and  _119
REMARK   50  A    between atoms: _119  and  _120
REMARK   51  A    between atoms: _123  and  _125
REMARK   52  A    between atoms: _125  and  _126
REMARK   53  A    between atoms: _125  and  _128
REMARK   54  A    between atoms: _131  and  _133
REMARK   55  A    between atoms: _133  and  _134
REMARK   56  A    between atoms: _133  and  _136
REMARK   57  A    between atoms: _136  and  _137
REMARK   58  A    between atoms: _137  and  _138
REMARK   59  A    between atoms: _138  and  _139
REMARK   60  A    between atoms: _139  and  _140
REMARK   61  A    between atoms: _144  and  _146
REMARK   62  A    between atoms: _146  and  _147
REMARK   63  A    between atoms: _146  and  _149
REMARK   64  A    between atoms: _149  and  _150
REMARK   65  A    between atoms: _150  and  _151
REMARK   66  A    between atoms: _153  and  _155
REMARK   67  A    between atoms: _155  and  _156
REMARK   68  A    between atoms: _155  and  _158
REMARK   69  A    between atoms: _158  and  _159
REMARK   70  A    between atoms: _162  and  _164
REMARK   71  A    between atoms: _164  and  _165
REMARK   72  A    between atoms: _164  and  _167
REMARK   73  A    between atoms: _167  and  _168
REMARK   74  A    between atoms: _170  and  _172
REMARK   75  A    between atoms: _172  and  _173
REMARK   76  A    between atoms: _172  and  _175
REMARK   77  A    between atoms: _175  and  _176
REMARK   78  A    between atoms: _176  and  _177
REMARK   79  A    between atoms: _180  and  _182
REMARK   80  A    between atoms: _182  and  _183
REMARK   81  A    between atoms: _182  and  _185
REMARK   82  A    between atoms: _185  and  _186
REMARK   83  A    between atoms: _189  and  _191
REMARK   84  A    between atoms: _191  and  _192
REMARK   85  A    between atoms: _191  and  _194
REMARK   86  A    between atoms: _194  and  _195
REMARK   87  A    between atoms: _198  and  _200
REMARK   88  A    between atoms: _200  and  _201
REMARK   89  A    between atoms: _200  and  _203
REMARK   90  A    between atoms: _203  and  _204
REMARK   91  A    between atoms: _207  and  _209
REMARK   92  A    between atoms: _209  and  _210
REMARK   93  A    between atoms: _209  and  _212
REMARK   94  A    between atoms: _212  and  _213
REMARK   95  A    between atoms: _216  and  _218
REMARK   96  A    between atoms: _218  and  _219
REMARK   97  A    between atoms: _218  and  _221
REMARK   98  A    between atoms: _221  and  _222
REMARK   99  A    between atoms: _225  and  _227
REMARK  100  A    between atoms: _227  and  _228
REMARK  101  A    between atoms: _227  and  _230
REMARK  102  A    between atoms: _233  and  _235
REMARK  103  A    between atoms: _235  and  _236
REMARK  104  A    between atoms: _235  and  _238
REMARK  105  A    between atoms: _241  and  _243
REMARK  106  A    between atoms: _243  and  _244
REMARK  107  A    between atoms: _243  and  _246
REMARK  108  A    between atoms: _246  and  _247
REMARK  109  A    between atoms: _252  and  _254
REMARK  110  A    between atoms: _254  and  _255
REMARK  111  A    between atoms: _254  and  _257
REMARK  112  A    between atoms: _257  and  _258
REMARK  113  A    between atoms: _261  and  _263
REMARK  114  A    between atoms: _263  and  _264
REMARK  115  A    between atoms: _263  and  _266
REMARK  116  A    between atoms: _266  and  _267
REMARK  117  A    between atoms: _270  and  _272
REMARK  118  A    between atoms: _272  and  _273
REMARK  119  A    between atoms: _275  and  _277
REMARK  120  A    between atoms: _277  and  _278
REMARK  121  A    between atoms: _277  and  _280
REMARK  122  A    between atoms: _280  and  _281
REMARK  123  A    between atoms: _281  and  _282
REMARK  124  A    between atoms: _284  and  _286
REMARK  125  A    between atoms: _286  and  _287
REMARK  126  A    between atoms: _286  and  _289
REMARK  127  A    between atoms: _292  and  _294
REMARK  128  A    between atoms: _294  and  _295
REMARK  129  A    between atoms: _294  and  _297
REMARK  130  A    between atoms: _297  and  _298
REMARK  131  A    between atoms: _301  and  _303
REMARK  132  A    between atoms: _303  and  _304
REMARK  133  A    between atoms: _303  and  _306
REMARK  134  A    between atoms: _309  and  _311
REMARK  135  A    between atoms: _311  and  _312
REMARK  136  A    between atoms: _311  and  _314
REMARK  137  A    between atoms: _314  and  _315
REMARK  138  A    between atoms: _315  and  _316
REMARK  139  A    between atoms: _319  and  _321
REMARK  140  A    between atoms: _321  and  _322
REMARK  141  A    between atoms: _321  and  _324
REMARK  142  A    between atoms: _324  and  _325
REMARK  143  A    between atoms: _331  and  _333
REMARK  144  A    between atoms: _333  and  _334
REMARK  145  A    between atoms: _333  and  _336
REMARK  146  A    between atoms: _338  and  _340
REMARK  147  A    between atoms: _340  and  _341
REMARK  148  A    between atoms: _340  and  _343
REMARK  149  A    between atoms: _343  and  _344
REMARK  150  A    between atoms: _344  and  _345
REMARK  151  A    between atoms: _345  and  _346
REMARK  152  A    between atoms: _346  and  _347
REMARK  153  A    between atoms: _351  and  _353
REMARK  154  A    between atoms: _353  and  _354
REMARK  155  A    between atoms: _353  and  _356
REMARK  156  A    between atoms: _356  and  _357
REMARK  157  A    between atoms: _363  and  _365
REMARK  158  A    between atoms: _365  and  _366
REMARK  159  A    between atoms: _368  and  _370
REMARK  160  A    between atoms: _370  and  _371
REMARK  161  A    between atoms: _370  and  _373
REMARK  162  A    between atoms: _373  and  _374
REMARK  163  A    between atoms: _379  and  _381
REMARK  164  A    between atoms: _381  and  _382
REMARK  165  A    between atoms: _384  and  _386
REMARK  166  A    between atoms: _386  and  _387
REMARK  167  A    between atoms: _386  and  _389
REMARK  168  A    between atoms: _389  and  _390
REMARK  169  A    between atoms: _390  and  _391
REMARK  170  A    between atoms: _393  and  _395
REMARK  171  A    between atoms: _395  and  _396
REMARK  172  A    between atoms: _395  and  _398
REMARK  173  A    between atoms: _398  and  _399
REMARK  174  A    between atoms: _402  and  _404
REMARK  175  A    between atoms: _404  and  _405
REMARK  176  A    between atoms: _404  and  _407
REMARK  177  A    between atoms: _409  and  _411
REMARK  178  A    between atoms: _411  and  _412
REMARK  179  A    between atoms: _411  and  _414
REMARK  180  A    between atoms: _414  and  _415
REMARK  181  A    between atoms: _418  and  _420
REMARK  182  A    between atoms: _420  and  _421
REMARK  183  A    between atoms: _420  and  _423
REMARK  184  A    between atoms: _423  and  _424
REMARK  185  A    between atoms: _429  and  _431
REMARK  186  A    between atoms: _431  and  _432
REMARK  187  A    between atoms: _431  and  _434
REMARK  188  A    between atoms: _434  and  _435
REMARK  189  A    between atoms: _435  and  _436
REMARK  190  A    between atoms: _436  and  _437
REMARK  191  A    between atoms: _446  and  _448
REMARK  192  A    between atoms: _448  and  _449
REMARK  193  A    between atoms: _448  and  _451
REMARK  194  A    between atoms: _451  and  _452
REMARK  195  A    between atoms: _452  and  _453
REMARK  196  A    between atoms: _453  and  _454
REMARK  197  A    between atoms: _463  and  _465
REMARK  198  A    between atoms: _465  and  _466
REMARK  199  A    between atoms: _465  and  _468
REMARK  200  A    between atoms: _468  and  _469
REMARK  201  A    between atoms: _474  and  _476
REMARK  202  A    between atoms: _476  and  _477
REMARK  203  A    between atoms: _476  and  _479
REMARK  204  A    between atoms: _479  and  _480
REMARK  205  A    between atoms: _483  and  _485
REMARK  206  A    between atoms: _485  and  _486
REMARK  207  A    between atoms: _485  and  _488
REMARK  208  A    between atoms: _488  and  _489
REMARK  209  A    between atoms: _492  and  _494
REMARK  210  A    between atoms: _494  and  _495
REMARK  211  A    between atoms: _494  and  _497
REMARK  212  A    between atoms: _497  and  _498
REMARK  213  A    between atoms: _500  and  _502
REMARK  214  A    between atoms: _502  and  _503
REMARK  215  A    between atoms: _502  and  _505
REMARK  216  A    between atoms: _505  and  _506
REMARK  217  A    between atoms: _506  and  _507
REMARK  218  A    between atoms: _507  and  _508
REMARK  219  A    between atoms: _508  and  _509
REMARK  220  A    between atoms: _513  and  _515
REMARK  221  A    between atoms: _515  and  _516
REMARK  222  A    between atoms: _515  and  _518
REMARK  223  A    between atoms: _518  and  _519
REMARK  224  A    between atoms: _522  and  _524
REMARK  225  A    between atoms: _524  and  _525
REMARK  226  A    between atoms: _524  and  _527
REMARK  227  A    between atoms: _529  and  _531
REMARK  228  A    between atoms: _531  and  _532
REMARK  229  A    between atoms: _531  and  _534
REMARK  230  A    between atoms: _534  and  _535
REMARK  231  A    between atoms: _538  and  _540
REMARK  232  A    between atoms: _540  and  _541
REMARK  233  A    between atoms: _540  and  _543
REMARK  234  A    between atoms: _543  and  _544
REMARK  235  A    between atoms: _550  and  _552
REMARK  236  A    between atoms: _552  and  _553
REMARK  237  A    between atoms: _555  and  _557
REMARK  238  A    between atoms: _557  and  _558
REMARK  239  A    between atoms: _557  and  _560
REMARK  240  A    between atoms: _560  and  _561
REMARK  241  A    between atoms: _564  and  _566
REMARK  242  A    between atoms: _566  and  _567
REMARK  243  A    between atoms: _570  and  _572
REMARK  244  A    between atoms: _572  and  _573
REMARK  245  A    between atoms: _572  and  _575
REMARK  246  A    between atoms: _575  and  _576
REMARK  247  A    between atoms: _576  and  _577
REMARK  248  A    between atoms: _577  and  _578
REMARK                            x       y       z     vdW  Elec       q    Type
REMARK                         _______ _______ _______ _____ _____    ______ ____
ROOT
ATOM      1  CA  LEU A   2     -33.855  -0.845  -8.608  0.00  0.00    +0.149 C 
ENDROOT
BRANCH   1   4
ATOM      2  C   ILE A   1     -35.014  -2.569  -7.353  0.00  0.00    +0.238 C 
ATOM      3  O   ILE A   1     -35.428  -1.747  -6.527  0.00  0.00    -0.274 OA
ATOM      4  N   LEU A   2     -34.236  -2.232  -8.373  0.00  0.00    -0.297 N 
ATOM      5  H   LEU A   2     -33.891  -2.972  -9.018  0.00  0.00    +0.150 HD
BRANCH   2   6
ATOM      6  CA  ILE A   1     -35.373  -4.050  -7.246  0.00  0.00    +0.145 C 
BRANCH   6   7
ATOM      7  N   ILE A   1     -35.872  -4.570  -8.515  0.00  0.00    -0.238 NA
ATOM      8  H   ILE A   1     -35.374  -5.358  -8.977  0.00  0.00    +0.142 HD
ENDBRANCH   6   7
BRANCH   6   9
ATOM      9  CB  ILE A   1     -34.122  -4.817  -6.785  0.00  0.00    +0.025 C 
ATOM     10  CG2 ILE A   1     -33.508  -4.138  -5.568  0.00  0.00    +0.002 C 
BRANCH   9  11
ATOM     11  CG1 ILE A   1     -34.496  -6.263  -6.462  0.00  0.00    +0.002 C 
ATOM     12  CD1 ILE A   1     -33.294  -7.149  -6.202  0.00  0.00    +0.000 C 
ENDBRANCH   9  11
ENDBRANCH   6   9
ENDBRANCH   2   6
ENDBRANCH   1   4
BRANCH   1  13
ATOM     13  C   LEU A   2     -35.077   0.067  -8.735  0.00  0.00    +0.241 C 
ATOM     14  O   LEU A   2     -35.109   1.151  -8.152  0.00  0.00    -0.273 OA
ATOM     15  N   ILE A   3     -36.082  -0.370  -9.489  0.00  0.00    -0.298 N 
ATOM     16  H   ILE A   3     -35.990  -1.276  -9.992  0.00  0.00    +0.150 HD
BRANCH  15  17
ATOM     17  CA  ILE A   3     -37.315   0.407  -9.620  0.00  0.00    +0.137 C 
BRANCH  17  18
ATOM     18  C   ILE A   3     -37.959   0.631  -8.253  0.00  0.00    +0.227 C 
ATOM     19  O   ILE A   3     -38.319   1.757  -7.899  0.00  0.00    -0.286 OA
ENDBRANCH  17  18
BRANCH  17  20
ATOM     20  CB  ILE A   3     -38.331  -0.303 -10.547  0.00  0.00    +0.026 C 
ATOM     21  CG2 ILE A   3     -39.688   0.389 -10.462  0.00  0.00    +0.002 C 
BRANCH  20  22
ATOM     22  CG1 ILE A   3     -37.801  -0.311 -11.987  0.00  0.00    +0.002 C 
ATOM     23  CD1 ILE A   3     -38.629  -1.132 -12.954  0.00  0.00    +0.000 C 
ENDBRANCH  20  22
ENDBRANCH  17  20
ENDBRANCH  15  17
ENDBRANCH   1  13
BRANCH   1  24
ATOM     24  CB  LEU A   2     -32.990  -0.748  -9.866  0.00  0.00    +0.029 C 
BRANCH  24  25
ATOM     25  CG  LEU A   2     -31.555  -1.257  -9.685  0.00  0.00    +0.002 C 
ATOM     26  CD2 LEU A   2     -30.824  -0.333  -8.722  0.00  0.00    +0.000 C 
ATOM     27  CD1 LEU A   2     -30.830  -1.313 -11.029  0.00  0.00    +0.000 C 
ENDBRANCH  24  25
ENDBRANCH   1  24
TORSDOF 12
REMARK  Name = ../refined-set-2016/4ase/4ase_pocket.pdb
REMARK  248 active torsions:
REMARK  status: ('A' for Active; 'I' for Inactive)
REMARK    1  A    between atoms: _1  and  _3
REMARK    2  A    between atoms: _3  and  _4
REMARK    3  A    between atoms: _3  and  _6
REMARK    4  A    between atoms: _6  and  _7
REMARK    5  A    between atoms: _10  and  _12
REMARK    6  A    between atoms: _12  and  _13
REMARK    7  A    between atoms: _12  and  _15
REMARK    8  A    between atoms: _15  and  _16
REMARK    9  A    between atoms: _16  and  _17
REMARK   10  A    between atoms: _17  and  _18
REMARK   11  A    between atoms: _18  and  _19
REMARK   12  A    between atoms: _24  and  _25
REMARK   13  A    between atoms: _30  and  _32
REMARK   14  A    between atoms: _32  and  _33
REMARK   15  A    between atoms: _32  and  _35
REMARK   16  A    between atoms: _35  and  _36
REMARK   17  A    between atoms: _39  and  _41
REMARK   18  A    between atoms: _41  and  _42
REMARK   19  A    between atoms: _44  and  _46
REMARK   20  A    between atoms: _46  and  _47
REMARK   21  A    between atoms: _46  and  _49
REMARK   22  A    between atoms: _49  and  _50
REMARK   23  A    between atoms: _50  and  _51
REMARK   24  A    between atoms: _51  and  _52
REMARK   25  A    between atoms: _61  and  _63
REMARK   26  A    between atoms: _63  and  _64
REMARK   27  A    between atoms: _63  and  _66
REMARK   28  A    between atoms: _66  and  _67
REMARK   29  A    between atoms: _67  and  _68
REMARK   30  A    between atoms: _73  and  _75
REMARK   31  A    between atoms: _75  and  _76
REMARK   32  A    between atoms: _75  and  _78
REMARK   33  A    between atoms: _81  and  _83
REMARK   34  A    between atoms: _83  and  _84
REMARK   35  A    between atoms: _83  and  _86
REMARK   36  A    between atoms: _86  and  _87
REMARK   37  A    between atoms: _90  and  _92
REMARK   38  A    between atoms: _92  and  _93
REMARK   39  A    between atoms: _92  and  _95
REMARK   40  A    between atoms: _95  and  _96
REMARK   41  A    between atoms: _96  and  _97
REMARK   42  A    between atoms: _100  and  _102
REMARK   43  A    between atoms: _102  and  _103
REMARK   44  A    between atoms: _102  and  _105
REMARK   45  A    between atoms: _105  and  _106
REMARK   46  A    between atoms: _109  and  _111
REMARK   47  A    between atoms: _111  and  _112
REMARK   48  A    between atoms: _111  and  _114
REMARK   49  A    between atoms: _117  and  _119
REMARK   50  A    between atoms: _119  and  _120
REMARK   51  A    between atoms: _123  and  _125
REMARK   52  A    between atoms: _125  and  _126
REMARK   53  A    between atoms: _125  and  _128
REMARK   54  A    between atoms: _131  and  _133
REMARK   55  A    between atoms: _133  and  _134
REMARK   56  A    between atoms: _133  and  _136
REMARK   57  A    between atoms: _136  and  _137
REMARK   58  A    between atoms: _137  and  _138
REMARK   59  A    between atoms: _138  and  _139
REMARK   60  A    between atoms: _139  and  _140
REMARK   61  A    between atoms: _144  and  _146
REMARK   62  A    between atoms: _146  and  _147
REMARK   63  A    between atoms: _146  and  _149
REMARK   64  A    between atoms: _149  and  _150
REMARK   65  A    between atoms: _150  and  _151
REMARK   66  A    between atoms: _153  and  _155
REMARK   67  A    between atoms: _155  and  _156
REMARK   68  A    between atoms: _155  and  _158
REMARK   69  A    between atoms: _158  and  _159
REMARK   70  A    between atoms: _162  and  _164
REMARK   71  A    between atoms: _164  and  _165
REMARK   72  A    between atoms: _164  and  _167
REMARK   73  A    between atoms: _167  and  _168
REMARK   74  A    between atoms: _170  and  _172
REMARK   75  A    between atoms: _172  and  _173
REMARK   76  A    between atoms: _172  and  _175
REMARK   77  A    between atoms: _175  and  _176
REMARK   78  A    between atoms: _176  and  _177
REMARK   79  A    between atoms: _180  and  _182
REMARK   80  A    between atoms: _182  and  _183
REMARK   81  A    between atoms: _182  and  _185
REMARK   82  A    between atoms: _185  and  _186
REMARK   83  A    between atoms: _189  and  _191
REMARK   84  A    between atoms: _191  and  _192
REMARK   85  A    between atoms: _191  and  _194
REMARK   86  A    between atoms: _194  and  _195
REMARK   87  A    between atoms: _198  and  _200
REMARK   88  A    between atoms: _200  and  _201
REMARK   89  A    between atoms: _200  and  _203
REMARK   90  A    between atoms: _203  and  _204
REMARK   91  A    between atoms: _207  and  _209
REMARK   92  A    between atoms: _209  and  _210
REMARK   93  A    between atoms: _209  and  _212
REMARK   94  A    between atoms: _212  and  _213
REMARK   95  A    between atoms: _216  and  _218
REMARK   96  A    between atoms: _218  and  _219
REMARK   97  A    between atoms: _218  and  _221
REMARK   98  A    between atoms: _221  and  _222
REMARK   99  A    between atoms: _225  and  _227
REMARK  100  A    between atoms: _227  and  _228
REMARK  101  A    between atoms: _227  and  _230
REMARK  102  A    between atoms: _233  and  _235
REMARK  103  A    between atoms: _235  and  _236
REMARK  104  A    between atoms: _235  and  _238
REMARK  105  A    between atoms: _241  and  _243
REMARK  106  A    between atoms: _243  and  _244
REMARK  107  A    between atoms: _243  and  _246
REMARK  108  A    between atoms: _246  and  _247
REMARK  109  A    between atoms: _252  and  _254
REMARK  110  A    between atoms: _254  and  _255
REMARK  111  A    between atoms: _254  and  _257
REMARK  112  A    between atoms: _257  and  _258
REMARK  113  A    between atoms: _261  and  _263
REMARK  114  A    between atoms: _263  and  _264
REMARK  115  A    between atoms: _263  and  _266
REMARK  116  A    between atoms: _266  and  _267
REMARK  117  A    between atoms: _270  and  _272
REMARK  118  A    between atoms: _272  and  _273
REMARK  119  A    between atoms: _275  and  _277
REMARK  120  A    between atoms: _277  and  _278
REMARK  121  A    between atoms: _277  and  _280
REMARK  122  A    between atoms: _280  and  _281
REMARK  123  A    between atoms: _281  and  _282
REMARK  124  A    between atoms: _284  and  _286
REMARK  125  A    between atoms: _286  and  _287
REMARK  126  A    between atoms: _286  and  _289
REMARK  127  A    between atoms: _292  and  _294
REMARK  128  A    between atoms: _294  and  _295
REMARK  129  A    between atoms: _294  and  _297
REMARK  130  A    between atoms: _297  and  _298
REMARK  131  A    between atoms: _301  and  _303
REMARK  132  A    between atoms: _303  and  _304
REMARK  133  A    between atoms: _303  and  _306
REMARK  134  A    between atoms: _309  and  _311
REMARK  135  A    between atoms: _311  and  _312
REMARK  136  A    between atoms: _311  and  _314
REMARK  137  A    between atoms: _314  and  _315
REMARK  138  A    between atoms: _315  and  _316
REMARK  139  A    between atoms: _319  and  _321
REMARK  140  A    between atoms: _321  and  _322
REMARK  141  A    between atoms: _321  and  _324
REMARK  142  A    between atoms: _324  and  _325
REMARK  143  A    between atoms: _331  and  _333
REMARK  144  A    between atoms: _333  and  _334
REMARK  145  A    between atoms: _333  and  _336
REMARK  146  A    between atoms: _338  and  _340
REMARK  147  A    between atoms: _340  and  _341
REMARK  148  A    between atoms: _340  and  _343
REMARK  149  A    between atoms: _343  and  _344
REMARK  150  A    between atoms: _344  and  _345
REMARK  151  A    between atoms: _345  and  _346
REMARK  152  A    between atoms: _346  and  _347
REMARK  153  A    between atoms: _351  and  _353
REMARK  154  A    between atoms: _353  and  _354
REMARK  155  A    between atoms: _353  and  _356
REMARK  156  A    between atoms: _356  and  _357
REMARK  157  A    between atoms: _363  and  _365
REMARK  158  A    between atoms: _365  and  _366
REMARK  159  A    between atoms: _368  and  _370
REMARK  160  A    between atoms: _370  and  _371
REMARK  161  A    between atoms: _370  and  _373
REMARK  162  A    between atoms: _373  and  _374
REMARK  163  A    between atoms: _379  and  _381
REMARK  164  A    between atoms: _381  and  _382
REMARK  165  A    between atoms: _384  and  _386
REMARK  166  A    between atoms: _386  and  _387
REMARK  167  A    between atoms: _386  and  _389
REMARK  168  A    between atoms: _389  and  _390
REMARK  169  A    between atoms: _390  and  _391
REMARK  170  A    between atoms: _393  and  _395
REMARK  171  A    between atoms: _395  and  _396
REMARK  172  A    between atoms: _395  and  _398
REMARK  173  A    between atoms: _398  and  _399
REMARK  174  A    between atoms: _402  and  _404
REMARK  175  A    between atoms: _404  and  _405
REMARK  176  A    between atoms: _404  and  _407
REMARK  177  A    between atoms: _409  and  _411
REMARK  178  A    between atoms: _411  and  _412
REMARK  179  A    between atoms: _411  and  _414
REMARK  180  A    between atoms: _414  and  _415
REMARK  181  A    between atoms: _418  and  _420
REMARK  182  A    between atoms: _420  and  _421
REMARK  183  A    between atoms: _420  and  _423
REMARK  184  A    between atoms: _423  and  _424
REMARK  185  A    between atoms: _429  and  _431
REMARK  186  A    between atoms: _431  and  _432
REMARK  187  A    between atoms: _431  and  _434
REMARK  188  A    between atoms: _434  and  _435
REMARK  189  A    between atoms: _435  and  _436
REMARK  190  A    between atoms: _436  and  _437
REMARK  191  A    between atoms: _446  and  _448
REMARK  192  A    between atoms: _448  and  _449
REMARK  193  A    between atoms: _448  and  _451
REMARK  194  A    between atoms: _451  and  _452
REMARK  195  A    between atoms: _452  and  _453
REMARK  196  A    between atoms: _453  and  _454
REMARK  197  A    between atoms: _463  and  _465
REMARK  198  A    between atoms: _465  and  _466
REMARK  199  A    between atoms: _465  and  _468
REMARK  200  A    between atoms: _468  and  _469
REMARK  201  A    between atoms: _474  and  _476
REMARK  202  A    between atoms: _476  and  _477
REMARK  203  A    between atoms: _476  and  _479
REMARK  204  A    between atoms: _479  and  _480
REMARK  205  A    between atoms: _483  and  _485
REMARK  206  A    between atoms: _485  and  _486
REMARK  207  A    between atoms: _485  and  _488
REMARK  208  A    between atoms: _488  and  _489
REMARK  209  A    between atoms: _492  and  _494
REMARK  210  A    between atoms: _494  and  _495
REMARK  211  A    between atoms: _494  and  _497
REMARK  212  A    between atoms: _497  and  _498
REMARK  213  A    between atoms: _500  and  _502
REMARK  214  A    between atoms: _502  and  _503
REMARK  215  A    between atoms: _502  and  _505
REMARK  216  A    between atoms: _505  and  _506
REMARK  217  A    between atoms: _506  and  _507
REMARK  218  A    between atoms: _507  and  _508
REMARK  219  A    between atoms: _508  and  _509
REMARK  220  A    between atoms: _513  and  _515
REMARK  221  A    between atoms: _515  and  _516
REMARK  222  A    between atoms: _515  and  _518
REMARK  223  A    between atoms: _518  and  _519
REMARK  224  A    between atoms: _522  and  _524
REMARK  225  A    between atoms: _524  and  _525
REMARK  226  A    between atoms: _524  and  _527
REMARK  227  A    between atoms: _529  and  _531
REMARK  228  A    between atoms: _531  and  _532
REMARK  229  A    between atoms: _531  and  _534
REMARK  230  A    between atoms: _534  and  _535
REMARK  231  A    between atoms: _538  and  _540
REMARK  232  A    between atoms: _540  and  _541
REMARK  233  A    between atoms: _540  and  _543
REMARK  234  A    between atoms: _543  and  _544
REMARK  235  A    between atoms: _550  and  _552
REMARK  236  A    between atoms: _552  and  _553
REMARK  237  A    between atoms: _555  and  _557
REMARK  238  A    between atoms: _557  and  _558
REMARK  239  A    between atoms: _557  and  _560
REMARK  240  A    between atoms: _560  and  _561
REMARK  241  A    between atoms: _564  and  _566
REMARK  242  A    between atoms: _566  and  _567
REMARK  243  A    between atoms: _570  and  _572
REMARK  244  A    between atoms: _572  and  _573
REMARK  245  A    between atoms: _572  and  _575
REMARK  246  A    between atoms: _575  and  _576
REMARK  247  A    between atoms: _576  and  _577
REMARK  248  A    between atoms: _577  and  _578
REMARK                            x       y       z     vdW  Elec       q    Type
REMARK                         _______ _______ _______ _____ _____    ______ ____
ROOT
ATOM      1  CA  ILE A   1     -35.892   1.218  -4.277  0.00  0.00    +0.133 C 
ENDROOT
BRANCH   1   2
ATOM      2  N   ILE A   1     -36.692   0.432  -5.207  0.00  0.00    -0.239 NA
ATOM      3  H   ILE A   1     -36.219  -0.168  -5.912  0.00  0.00    +0.142 HD
ENDBRANCH   1   2
BRANCH   1   4
ATOM      4  C   ILE A   1     -36.152   2.711  -4.436  0.00  0.00    +0.224 C 
ATOM      5  O   ILE A   1     -36.304   3.432  -3.450  0.00  0.00    -0.287 OA
ENDBRANCH   1   4
BRANCH   1   6
ATOM      6  CB  ILE A   1     -34.392   0.944  -4.470  0.00  0.00    +0.023 C 
ATOM      7  CG2 ILE A   1     -33.569   2.011  -3.777  0.00  0.00    +0.002 C 
BRANCH   6   8
ATOM      8  CG1 ILE A   1     -34.056  -0.448  -3.934  0.00  0.00    +0.002 C 
ATOM      9  CD1 ILE A   1     -32.647  -0.898  -4.255  0.00  0.00    +0.000 C 
ENDBRANCH   6   8
ENDBRANCH   1   6
TORSDOF 4
REMARK  Name = ../refined-set-2016/4ase/4ase_pocket.pdb
REMARK  248 active torsions:
REMARK  status: ('A' for Active; 'I' for Inactive)
REMARK    1  A    between atoms: _1  and  _3
REMARK    2  A    between atoms: _3  and  _4
REMARK    3  A    between atoms: _3  and  _6
REMARK    4  A    between atoms: _6  and  _7
REMARK    5  A    between atoms: _10  and  _12
REMARK    6  A    between atoms: _12  and  _13
REMARK    7  A    between atoms: _12  and  _15
REMARK    8  A    between atoms: _15  and  _16
REMARK    9  A    between atoms: _16  and  _17
REMARK   10  A    between atoms: _17  and  _18
REMARK   11  A    between atoms: _18  and  _19
REMARK   12  A    between atoms: _24  and  _25
REMARK   13  A    between atoms: _30  and  _32
REMARK   14  A    between atoms: _32  and  _33
REMARK   15  A    between atoms: _32  and  _35
REMARK   16  A    between atoms: _35  and  _36
REMARK   17  A    between atoms: _39  and  _41
REMARK   18  A    between atoms: _41  and  _42
REMARK   19  A    between atoms: _44  and  _46
REMARK   20  A    between atoms: _46  and  _47
REMARK   21  A    between atoms: _46  and  _49
REMARK   22  A    between atoms: _49  and  _50
REMARK   23  A    between atoms: _50  and  _51
REMARK   24  A    between atoms: _51  and  _52
REMARK   25  A    between atoms: _61  and  _63
REMARK   26  A    between atoms: _63  and  _64
REMARK   27  A    between atoms: _63  and  _66
REMARK   28  A    between atoms: _66  and  _67
REMARK   29  A    between atoms: _67  and  _68
REMARK   30  A    between atoms: _73  and  _75
REMARK   31  A    between atoms: _75  and  _76
REMARK   32  A    between atoms: _75  and  _78
REMARK   33  A    between atoms: _81  and  _83
REMARK   34  A    between atoms: _83  and  _84
REMARK   35  A    between atoms: _83  and  _86
REMARK   36  A    between atoms: _86  and  _87
REMARK   37  A    between atoms: _90  and  _92
REMARK   38  A    between atoms: _92  and  _93
REMARK   39  A    between atoms: _92  and  _95
REMARK   40  A    between atoms: _95  and  _96
REMARK   41  A    between atoms: _96  and  _97
REMARK   42  A    between atoms: _100  and  _102
REMARK   43  A    between atoms: _102  and  _103
REMARK   44  A    between atoms: _102  and  _105
REMARK   45  A    between atoms: _105  and  _106
REMARK   46  A    between atoms: _109  and  _111
REMARK   47  A    between atoms: _111  and  _112
REMARK   48  A    between atoms: _111  and  _114
REMARK   49  A    between atoms: _117  and  _119
REMARK   50  A    between atoms: _119  and  _120
REMARK   51  A    between atoms: _123  and  _125
REMARK   52  A    between atoms: _125  and  _126
REMARK   53  A    between atoms: _125  and  _128
REMARK   54  A    between atoms: _131  and  _133
REMARK   55  A    between atoms: _133  and  _134
REMARK   56  A    between atoms: _133  and  _136
REMARK   57  A    between atoms: _136  and  _137
REMARK   58  A    between atoms: _137  and  _138
REMARK   59  A    between atoms: _138  and  _139
REMARK   60  A    between atoms: _139  and  _140
REMARK   61  A    between atoms: _144  and  _146
REMARK   62  A    between atoms: _146  and  _147
REMARK   63  A    between atoms: _146  and  _149
REMARK   64  A    between atoms: _149  and  _150
REMARK   65  A    between atoms: _150  and  _151
REMARK   66  A    between atoms: _153  and  _155
REMARK   67  A    between atoms: _155  and  _156
REMARK   68  A    between atoms: _155  and  _158
REMARK   69  A    between atoms: _158  and  _159
REMARK   70  A    between atoms: _162  and  _164
REMARK   71  A    between atoms: _164  and  _165
REMARK   72  A    between atoms: _164  and  _167
REMARK   73  A    between atoms: _167  and  _168
REMARK   74  A    between atoms: _170  and  _172
REMARK   75  A    between atoms: _172  and  _173
REMARK   76  A    between atoms: _172  and  _175
REMARK   77  A    between atoms: _175  and  _176
REMARK   78  A    between atoms: _176  and  _177
REMARK   79  A    between atoms: _180  and  _182
REMARK   80  A    between atoms: _182  and  _183
REMARK   81  A    between atoms: _182  and  _185
REMARK   82  A    between atoms: _185  and  _186
REMARK   83  A    between atoms: _189  and  _191
REMARK   84  A    between atoms: _191  and  _192
REMARK   85  A    between atoms: _191  and  _194
REMARK   86  A    between atoms: _194  and  _195
REMARK   87  A    between atoms: _198  and  _200
REMARK   88  A    between atoms: _200  and  _201
REMARK   89  A    between atoms: _200  and  _203
REMARK   90  A    between atoms: _203  and  _204
REMARK   91  A    between atoms: _207  and  _209
REMARK   92  A    between atoms: _209  and  _210
REMARK   93  A    between atoms: _209  and  _212
REMARK   94  A    between atoms: _212  and  _213
REMARK   95  A    between atoms: _216  and  _218
REMARK   96  A    between atoms: _218  and  _219
REMARK   97  A    between atoms: _218  and  _221
REMARK   98  A    between atoms: _221  and  _222
REMARK   99  A    between atoms: _225  and  _227
REMARK  100  A    between atoms: _227  and  _228
REMARK  101  A    between atoms: _227  and  _230
REMARK  102  A    between atoms: _233  and  _235
REMARK  103  A    between atoms: _235  and  _236
REMARK  104  A    between atoms: _235  and  _238
REMARK  105  A    between atoms: _241  and  _243
REMARK  106  A    between atoms: _243  and  _244
REMARK  107  A    between atoms: _243  and  _246
REMARK  108  A    between atoms: _246  and  _247
REMARK  109  A    between atoms: _252  and  _254
REMARK  110  A    between atoms: _254  and  _255
REMARK  111  A    between atoms: _254  and  _257
REMARK  112  A    between atoms: _257  and  _258
REMARK  113  A    between atoms: _261  and  _263
REMARK  114  A    between atoms: _263  and  _264
REMARK  115  A    between atoms: _263  and  _266
REMARK  116  A    between atoms: _266  and  _267
REMARK  117  A    between atoms: _270  and  _272
REMARK  118  A    between atoms: _272  and  _273
REMARK  119  A    between atoms: _275  and  _277
REMARK  120  A    between atoms: _277  and  _278
REMARK  121  A    between atoms: _277  and  _280
REMARK  122  A    between atoms: _280  and  _281
REMARK  123  A    between atoms: _281  and  _282
REMARK  124  A    between atoms: _284  and  _286
REMARK  125  A    between atoms: _286  and  _287
REMARK  126  A    between atoms: _286  and  _289
REMARK  127  A    between atoms: _292  and  _294
REMARK  128  A    between atoms: _294  and  _295
REMARK  129  A    between atoms: _294  and  _297
REMARK  130  A    between atoms: _297  and  _298
REMARK  131  A    between atoms: _301  and  _303
REMARK  132  A    between atoms: _303  and  _304
REMARK  133  A    between atoms: _303  and  _306
REMARK  134  A    between atoms: _309  and  _311
REMARK  135  A    between atoms: _311  and  _312
REMARK  136  A    between atoms: _311  and  _314
REMARK  137  A    between atoms: _314  and  _315
REMARK  138  A    between atoms: _315  and  _316
REMARK  139  A    between atoms: _319  and  _321
REMARK  140  A    between atoms: _321  and  _322
REMARK  141  A    between atoms: _321  and  _324
REMARK  142  A    between atoms: _324  and  _325
REMARK  143  A    between atoms: _331  and  _333
REMARK  144  A    between atoms: _333  and  _334
REMARK  145  A    between atoms: _333  and  _336
REMARK  146  A    between atoms: _338  and  _340
REMARK  147  A    between atoms: _340  and  _341
REMARK  148  A    between atoms: _340  and  _343
REMARK  149  A    between atoms: _343  and  _344
REMARK  150  A    between atoms: _344  and  _345
REMARK  151  A    between atoms: _345  and  _346
REMARK  152  A    between atoms: _346  and  _347
REMARK  153  A    between atoms: _351  and  _353
REMARK  154  A    between atoms: _353  and  _354
REMARK  155  A    between atoms: _353  and  _356
REMARK  156  A    between atoms: _356  and  _357
REMARK  157  A    between atoms: _363  and  _365
REMARK  158  A    between atoms: _365  and  _366
REMARK  159  A    between atoms: _368  and  _370
REMARK  160  A    between atoms: _370  and  _371
REMARK  161  A    between atoms: _370  and  _373
REMARK  162  A    between atoms: _373  and  _374
REMARK  163  A    between atoms: _379  and  _381
REMARK  164  A    between atoms: _381  and  _382
REMARK  165  A    between atoms: _384  and  _386
REMARK  166  A    between atoms: _386  and  _387
REMARK  167  A    between atoms: _386  and  _389
REMARK  168  A    between atoms: _389  and  _390
REMARK  169  A    between atoms: _390  and  _391
REMARK  170  A    between atoms: _393  and  _395
REMARK  171  A    between atoms: _395  and  _396
REMARK  172  A    between atoms: _395  and  _398
REMARK  173  A    between atoms: _398  and  _399
REMARK  174  A    between atoms: _402  and  _404
REMARK  175  A    between atoms: _404  and  _405
REMARK  176  A    between atoms: _404  and  _407
REMARK  177  A    between atoms: _409  and  _411
REMARK  178  A    between atoms: _411  and  _412
REMARK  179  A    between atoms: _411  and  _414
REMARK  180  A    between atoms: _414  and  _415
REMARK  181  A    between atoms: _418  and  _420
REMARK  182  A    between atoms: _420  and  _421
REMARK  183  A    between atoms: _420  and  _423
REMARK  184  A    between atoms: _423  and  _424
REMARK  185  A    between atoms: _429  and  _431
REMARK  186  A    between atoms: _431  and  _432
REMARK  187  A    between atoms: _431  and  _434
REMARK  188  A    between atoms: _434  and  _435
REMARK  189  A    between atoms: _435  and  _436
REMARK  190  A    between atoms: _436  and  _437
REMARK  191  A    between atoms: _446  and  _448
REMARK  192  A    between atoms: _448  and  _449
REMARK  193  A    between atoms: _448  and  _451
REMARK  194  A    between atoms: _451  and  _452
REMARK  195  A    between atoms: _452  and  _453
REMARK  196  A    between atoms: _453  and  _454
REMARK  197  A    between atoms: _463  and  _465
REMARK  198  A    between atoms: _465  and  _466
REMARK  199  A    between atoms: _465  and  _468
REMARK  200  A    between atoms: _468  and  _469
REMARK  201  A    between atoms: _474  and  _476
REMARK  202  A    between atoms: _476  and  _477
REMARK  203  A    between atoms: _476  and  _479
REMARK  204  A    between atoms: _479  and  _480
REMARK  205  A    between atoms: _483  and  _485
REMARK  206  A    between atoms: _485  and  _486
REMARK  207  A    between atoms: _485  and  _488
REMARK  208  A    between atoms: _488  and  _489
REMARK  209  A    between atoms: _492  and  _494
REMARK  210  A    between atoms: _494  and  _495
REMARK  211  A    between atoms: _494  and  _497
REMARK  212  A    between atoms: _497  and  _498
REMARK  213  A    between atoms: _500  and  _502
REMARK  214  A    between atoms: _502  and  _503
REMARK  215  A    between atoms: _502  and  _505
REMARK  216  A    between atoms: _505  and  _506
REMARK  217  A    between atoms: _506  and  _507
REMARK  218  A    between atoms: _507  and  _508
REMARK  219  A    between atoms: _508  and  _509
REMARK  220  A    between atoms: _513  and  _515
REMARK  221  A    between atoms: _515  and  _516
REMARK  222  A    between atoms: _515  and  _518
REMARK  223  A    between atoms: _518  and  _519
REMARK  224  A    between atoms: _522  and  _524
REMARK  225  A    between atoms: _524  and  _525
REMARK  226  A    between atoms: _524  and  _527
REMARK  227  A    between atoms: _529  and  _531
REMARK  228  A    between atoms: _531  and  _532
REMARK  229  A    between atoms: _531  and  _534
REMARK  230  A    between atoms: _534  and  _535
REMARK  231  A    between atoms: _538  and  _540
REMARK  232  A    between atoms: _540  and  _541
REMARK  233  A    between atoms: _540  and  _543
REMARK  234  A    between atoms: _543  and  _544
REMARK  235  A    between atoms: _550  and  _552
REMARK  236  A    between atoms: _552  and  _553
REMARK  237  A    between atoms: _555  and  _557
REMARK  238  A    between atoms: _557  and  _558
REMARK  239  A    between atoms: _557  and  _560
REMARK  240  A    between atoms: _560  and  _561
REMARK  241  A    between atoms: _564  and  _566
REMARK  242  A    between atoms: _566  and  _567
REMARK  243  A    between atoms: _570  and  _572
REMARK  244  A    between atoms: _572  and  _573
REMARK  245  A    between atoms: _572  and  _575
REMARK  246  A    between atoms: _575  and  _576
REMARK  247  A    between atoms: _576  and  _577
REMARK  248  A    between atoms: _577  and  _578
REMARK                            x       y       z     vdW  Elec       q    Type
REMARK                         _______ _______ _______ _____ _____    ______ ____
ROOT
ATOM      1  CA  ASN A   3     -29.688   5.909 -10.587  0.00  0.00    +0.158 C 
ENDROOT
BRANCH   1   4
ATOM      2  C   VAL A   2     -28.042   4.551  -9.411  0.00  0.00    +0.241 C 
ATOM      3  O   VAL A   2     -28.877   3.704  -9.110  0.00  0.00    -0.273 OA
ATOM      4  N   ASN A   3     -28.319   5.587 -10.197  0.00  0.00    -0.297 N 
ATOM      5  H   ASN A   3     -27.540   6.183 -10.543  0.00  0.00    +0.150 HD
BRANCH   2   6
ATOM      6  CA  VAL A   2     -26.617   4.475  -8.856  0.00  0.00    +0.148 C 
BRANCH   6   9
ATOM      7  C   VAL A   1     -27.343   5.195  -6.676  0.00  0.00    +0.238 C 
ATOM      8  O   VAL A   1     -27.974   6.122  -7.180  0.00  0.00    -0.274 OA
ATOM      9  N   VAL A   2     -26.681   4.307  -7.409  0.00  0.00    -0.297 N 
ATOM     10  H   VAL A   2     -26.212   3.498  -6.954  0.00  0.00    +0.150 HD
BRANCH   7  11
ATOM     11  CA  VAL A   1     -27.291   5.039  -5.164  0.00  0.00    +0.145 C 
BRANCH  11  12
ATOM     12  CB  VAL A   1     -28.604   4.381  -4.652  0.00  0.00    +0.025 C 
ATOM     13  CG2 VAL A   1     -28.550   4.221  -3.133  0.00  0.00    +0.002 C 
ATOM     14  CG1 VAL A   1     -28.801   3.024  -5.308  0.00  0.00    +0.002 C 
ENDBRANCH  11  12
BRANCH  11  15
ATOM     15  N   VAL A   1     -27.136   6.386  -4.624  0.00  0.00    -0.238 NA
ATOM     16  H   VAL A   1     -27.764   7.144  -4.959  0.00  0.00    +0.142 HD
ENDBRANCH  11  15
ENDBRANCH   7  11
ENDBRANCH   6   9
BRANCH   6  17
ATOM     17  CB  VAL A   2     -25.841   3.311  -9.524  0.00  0.00    +0.027 C 
ATOM     18  CG2 VAL A   2     -26.586   2.000  -9.332  0.00  0.00    +0.002 C 
ATOM     19  CG1 VAL A   2     -25.626   3.614 -11.005  0.00  0.00    +0.002 C 
ENDBRANCH   6  17
ENDBRANCH   2   6
ENDBRANCH   1   4
BRANCH   1  20
ATOM     20  C   ASN A   3     -30.140   5.188 -11.860  0.00  0.00    +0.241 C 
ATOM     21  N   LEU A   4     -31.259   4.474 -11.761  0.00  0.00    -0.297 N 
ATOM     22  H   LEU A   4     -31.715   4.391 -10.830  0.00  0.00    +0.150 HD
ATOM     23  O   ASN A   3     -29.500   5.298 -12.902  0.00  0.00    -0.273 OA
BRANCH  21  24
ATOM     24  CA  LEU A   4     -31.875   3.802 -12.904  0.00  0.00    +0.149 C 
BRANCH  24  25
ATOM     25  C   LEU A   4     -32.524   4.813 -13.847  0.00  0.00    +0.241 C 
ATOM     26  O   LEU A   4     -33.299   5.663 -13.415  0.00  0.00    -0.273 OA
ATOM     27  N   LEU A   5     -32.212   4.714 -15.133  0.00  0.00    -0.297 N 
ATOM     28  H   LEU A   5     -31.559   3.966 -15.442  0.00  0.00    +0.150 HD
BRANCH  27  29
ATOM     29  CA  LEU A   5     -32.766   5.633 -16.125  0.00  0.00    +0.149 C 
BRANCH  29  30
ATOM     30  C   LEU A   5     -33.800   4.951 -17.027  0.00  0.00    +0.241 C 
ATOM     31  N   GLY A   6     -33.641   3.646 -17.221  0.00  0.00    -0.296 N 
ATOM     32  H   GLY A   6     -32.860   3.141 -16.755  0.00  0.00    +0.150 HD
ATOM     33  O   LEU A   5     -34.725   5.590 -17.540  0.00  0.00    -0.273 OA
BRANCH  31  34
ATOM     34  CA  GLY A   6     -34.557   2.928 -18.082  0.00  0.00    +0.163 C 
BRANCH  34  35
ATOM     35  C   GLY A   6     -34.087   1.513 -18.350  0.00  0.00    +0.229 C 
ATOM     36  O   GLY A   6     -33.065   1.077 -17.815  0.00  0.00    -0.286 OA
ENDBRANCH  34  35
ENDBRANCH  31  34
ENDBRANCH  29  30
BRANCH  29  37
ATOM     37  CB  LEU A   5     -31.632   6.208 -16.976  0.00  0.00    +0.029 C 
BRANCH  37  38
ATOM     38  CG  LEU A   5     -30.575   6.995 -16.190  0.00  0.00    +0.002 C 
ATOM     39  CD2 LEU A   5     -31.250   8.155 -15.466  0.00  0.00    +0.000 C 
ATOM     40  CD1 LEU A   5     -29.489   7.504 -17.134  0.00  0.00    +0.000 C 
ENDBRANCH  37  38
ENDBRANCH  29  37
ENDBRANCH  27  29
ENDBRANCH  24  25
BRANCH  24  41
ATOM     41  CB  LEU A   4     -32.940   2.821 -12.420  0.00  0.00    +0.029 C 
BRANCH  41  42
ATOM     42  CG  LEU A   4     -33.712   2.057 -13.494  0.00  0.00    +0.002 C 
ATOM     43  CD2 LEU A   4     -34.871   1.301 -12.840  0.00  0.00    +0.000 C 
ATOM     44  CD1 LEU A   4     -32.765   1.088 -14.214  0.00  0.00    +0.000 C 
ENDBRANCH  41  42
ENDBRANCH  24  41
ENDBRANCH  21  24
ENDBRANCH   1  20
BRANCH   1  45
ATOM     45  CB  ASN A   3     -29.836   7.421 -10.791  0.00  0.00    +0.114 C 
BRANCH  45  46
ATOM     46  CG  ASN A   3     -29.927   8.183  -9.476  0.00  0.00    +0.222 C 
ATOM     47  OD1 ASN A   3     -28.917   8.471  -8.833  0.00  0.00    -0.275 OA
ATOM     48  ND2 ASN A   3     -31.149   8.509  -9.070  0.00  0.00    -0.329 N 
ATOM     49 HD21 ASN A   3     -31.280   9.027  -8.178  0.00  0.00    +0.145 HD
ATOM     50 HD22 ASN A   3     -31.975   8.246  -9.644  0.00  0.00    +0.145 HD
ENDBRANCH  45  46
ENDBRANCH   1  45
TORSDOF 20
REMARK  Name = ../refined-set-2016/4ase/4ase_pocket.pdb
REMARK  248 active torsions:
REMARK  status: ('A' for Active; 'I' for Inactive)
REMARK    1  A    between atoms: _1  and  _3
REMARK    2  A    between atoms: _3  and  _4
REMARK    3  A    between atoms: _3  and  _6
REMARK    4  A    between atoms: _6  and  _7
REMARK    5  A    between atoms: _10  and  _12
REMARK    6  A    between atoms: _12  and  _13
REMARK    7  A    between atoms: _12  and  _15
REMARK    8  A    between atoms: _15  and  _16
REMARK    9  A    between atoms: _16  and  _17
REMARK   10  A    between atoms: _17  and  _18
REMARK   11  A    between atoms: _18  and  _19
REMARK   12  A    between atoms: _24  and  _25
REMARK   13  A    between atoms: _30  and  _32
REMARK   14  A    between atoms: _32  and  _33
REMARK   15  A    between atoms: _32  and  _35
REMARK   16  A    between atoms: _35  and  _36
REMARK   17  A    between atoms: _39  and  _41
REMARK   18  A    between atoms: _41  and  _42
REMARK   19  A    between atoms: _44  and  _46
REMARK   20  A    between atoms: _46  and  _47
REMARK   21  A    between atoms: _46  and  _49
REMARK   22  A    between atoms: _49  and  _50
REMARK   23  A    between atoms: _50  and  _51
REMARK   24  A    between atoms: _51  and  _52
REMARK   25  A    between atoms: _61  and  _63
REMARK   26  A    between atoms: _63  and  _64
REMARK   27  A    between atoms: _63  and  _66
REMARK   28  A    between atoms: _66  and  _67
REMARK   29  A    between atoms: _67  and  _68
REMARK   30  A    between atoms: _73  and  _75
REMARK   31  A    between atoms: _75  and  _76
REMARK   32  A    between atoms: _75  and  _78
REMARK   33  A    between atoms: _81  and  _83
REMARK   34  A    between atoms: _83  and  _84
REMARK   35  A    between atoms: _83  and  _86
REMARK   36  A    between atoms: _86  and  _87
REMARK   37  A    between atoms: _90  and  _92
REMARK   38  A    between atoms: _92  and  _93
REMARK   39  A    between atoms: _92  and  _95
REMARK   40  A    between atoms: _95  and  _96
REMARK   41  A    between atoms: _96  and  _97
REMARK   42  A    between atoms: _100  and  _102
REMARK   43  A    between atoms: _102  and  _103
REMARK   44  A    between atoms: _102  and  _105
REMARK   45  A    between atoms: _105  and  _106
REMARK   46  A    between atoms: _109  and  _111
REMARK   47  A    between atoms: _111  and  _112
REMARK   48  A    between atoms: _111  and  _114
REMARK   49  A    between atoms: _117  and  _119
REMARK   50  A    between atoms: _119  and  _120
REMARK   51  A    between atoms: _123  and  _125
REMARK   52  A    between atoms: _125  and  _126
REMARK   53  A    between atoms: _125  and  _128
REMARK   54  A    between atoms: _131  and  _133
REMARK   55  A    between atoms: _133  and  _134
REMARK   56  A    between atoms: _133  and  _136
REMARK   57  A    between atoms: _136  and  _137
REMARK   58  A    between atoms: _137  and  _138
REMARK   59  A    between atoms: _138  and  _139
REMARK   60  A    between atoms: _139  and  _140
REMARK   61  A    between atoms: _144  and  _146
REMARK   62  A    between atoms: _146  and  _147
REMARK   63  A    between atoms: _146  and  _149
REMARK   64  A    between atoms: _149  and  _150
REMARK   65  A    between atoms: _150  and  _151
REMARK   66  A    between atoms: _153  and  _155
REMARK   67  A    between atoms: _155  and  _156
REMARK   68  A    between atoms: _155  and  _158
REMARK   69  A    between atoms: _158  and  _159
REMARK   70  A    between atoms: _162  and  _164
REMARK   71  A    between atoms: _164  and  _165
REMARK   72  A    between atoms: _164  and  _167
REMARK   73  A    between atoms: _167  and  _168
REMARK   74  A    between atoms: _170  and  _172
REMARK   75  A    between atoms: _172  and  _173
REMARK   76  A    between atoms: _172  and  _175
REMARK   77  A    between atoms: _175  and  _176
REMARK   78  A    between atoms: _176  and  _177
REMARK   79  A    between atoms: _180  and  _182
REMARK   80  A    between atoms: _182  and  _183
REMARK   81  A    between atoms: _182  and  _185
REMARK   82  A    between atoms: _185  and  _186
REMARK   83  A    between atoms: _189  and  _191
REMARK   84  A    between atoms: _191  and  _192
REMARK   85  A    between atoms: _191  and  _194
REMARK   86  A    between atoms: _194  and  _195
REMARK   87  A    between atoms: _198  and  _200
REMARK   88  A    between atoms: _200  and  _201
REMARK   89  A    between atoms: _200  and  _203
REMARK   90  A    between atoms: _203  and  _204
REMARK   91  A    between atoms: _207  and  _209
REMARK   92  A    between atoms: _209  and  _210
REMARK   93  A    between atoms: _209  and  _212
REMARK   94  A    between atoms: _212  and  _213
REMARK   95  A    between atoms: _216  and  _218
REMARK   96  A    between atoms: _218  and  _219
REMARK   97  A    between atoms: _218  and  _221
REMARK   98  A    between atoms: _221  and  _222
REMARK   99  A    between atoms: _225  and  _227
REMARK  100  A    between atoms: _227  and  _228
REMARK  101  A    between atoms: _227  and  _230
REMARK  102  A    between atoms: _233  and  _235
REMARK  103  A    between atoms: _235  and  _236
REMARK  104  A    between atoms: _235  and  _238
REMARK  105  A    between atoms: _241  and  _243
REMARK  106  A    between atoms: _243  and  _244
REMARK  107  A    between atoms: _243  and  _246
REMARK  108  A    between atoms: _246  and  _247
REMARK  109  A    between atoms: _252  and  _254
REMARK  110  A    between atoms: _254  and  _255
REMARK  111  A    between atoms: _254  and  _257
REMARK  112  A    between atoms: _257  and  _258
REMARK  113  A    between atoms: _261  and  _263
REMARK  114  A    between atoms: _263  and  _264
REMARK  115  A    between atoms: _263  and  _266
REMARK  116  A    between atoms: _266  and  _267
REMARK  117  A    between atoms: _270  and  _272
REMARK  118  A    between atoms: _272  and  _273
REMARK  119  A    between atoms: _275  and  _277
REMARK  120  A    between atoms: _277  and  _278
REMARK  121  A    between atoms: _277  and  _280
REMARK  122  A    between atoms: _280  and  _281
REMARK  123  A    between atoms: _281  and  _282
REMARK  124  A    between atoms: _284  and  _286
REMARK  125  A    between atoms: _286  and  _287
REMARK  126  A    between atoms: _286  and  _289
REMARK  127  A    between atoms: _292  and  _294
REMARK  128  A    between atoms: _294  and  _295
REMARK  129  A    between atoms: _294  and  _297
REMARK  130  A    between atoms: _297  and  _298
REMARK  131  A    between atoms: _301  and  _303
REMARK  132  A    between atoms: _303  and  _304
REMARK  133  A    between atoms: _303  and  _306
REMARK  134  A    between atoms: _309  and  _311
REMARK  135  A    between atoms: _311  and  _312
REMARK  136  A    between atoms: _311  and  _314
REMARK  137  A    between atoms: _314  and  _315
REMARK  138  A    between atoms: _315  and  _316
REMARK  139  A    between atoms: _319  and  _321
REMARK  140  A    between atoms: _321  and  _322
REMARK  141  A    between atoms: _321  and  _324
REMARK  142  A    between atoms: _324  and  _325
REMARK  143  A    between atoms: _331  and  _333
REMARK  144  A    between atoms: _333  and  _334
REMARK  145  A    between atoms: _333  and  _336
REMARK  146  A    between atoms: _338  and  _340
REMARK  147  A    between atoms: _340  and  _341
REMARK  148  A    between atoms: _340  and  _343
REMARK  149  A    between atoms: _343  and  _344
REMARK  150  A    between atoms: _344  and  _345
REMARK  151  A    between atoms: _345  and  _346
REMARK  152  A    between atoms: _346  and  _347
REMARK  153  A    between atoms: _351  and  _353
REMARK  154  A    between atoms: _353  and  _354
REMARK  155  A    between atoms: _353  and  _356
REMARK  156  A    between atoms: _356  and  _357
REMARK  157  A    between atoms: _363  and  _365
REMARK  158  A    between atoms: _365  and  _366
REMARK  159  A    between atoms: _368  and  _370
REMARK  160  A    between atoms: _370  and  _371
REMARK  161  A    between atoms: _370  and  _373
REMARK  162  A    between atoms: _373  and  _374
REMARK  163  A    between atoms: _379  and  _381
REMARK  164  A    between atoms: _381  and  _382
REMARK  165  A    between atoms: _384  and  _386
REMARK  166  A    between atoms: _386  and  _387
REMARK  167  A    between atoms: _386  and  _389
REMARK  168  A    between atoms: _389  and  _390
REMARK  169  A    between atoms: _390  and  _391
REMARK  170  A    between atoms: _393  and  _395
REMARK  171  A    between atoms: _395  and  _396
REMARK  172  A    between atoms: _395  and  _398
REMARK  173  A    between atoms: _398  and  _399
REMARK  174  A    between atoms: _402  and  _404
REMARK  175  A    between atoms: _404  and  _405
REMARK  176  A    between atoms: _404  and  _407
REMARK  177  A    between atoms: _409  and  _411
REMARK  178  A    between atoms: _411  and  _412
REMARK  179  A    between atoms: _411  and  _414
REMARK  180  A    between atoms: _414  and  _415
REMARK  181  A    between atoms: _418  and  _420
REMARK  182  A    between atoms: _420  and  _421
REMARK  183  A    between atoms: _420  and  _423
REMARK  184  A    between atoms: _423  and  _424
REMARK  185  A    between atoms: _429  and  _431
REMARK  186  A    between atoms: _431  and  _432
REMARK  187  A    between atoms: _431  and  _434
REMARK  188  A    between atoms: _434  and  _435
REMARK  189  A    between atoms: _435  and  _436
REMARK  190  A    between atoms: _436  and  _437
REMARK  191  A    between atoms: _446  and  _448
REMARK  192  A    between atoms: _448  and  _449
REMARK  193  A    between atoms: _448  and  _451
REMARK  194  A    between atoms: _451  and  _452
REMARK  195  A    between atoms: _452  and  _453
REMARK  196  A    between atoms: _453  and  _454
REMARK  197  A    between atoms: _463  and  _465
REMARK  198  A    between atoms: _465  and  _466
REMARK  199  A    between atoms: _465  and  _468
REMARK  200  A    between atoms: _468  and  _469
REMARK  201  A    between atoms: _474  and  _476
REMARK  202  A    between atoms: _476  and  _477
REMARK  203  A    between atoms: _476  and  _479
REMARK  204  A    between atoms: _479  and  _480
REMARK  205  A    between atoms: _483  and  _485
REMARK  206  A    between atoms: _485  and  _486
REMARK  207  A    between atoms: _485  and  _488
REMARK  208  A    between atoms: _488  and  _489
REMARK  209  A    between atoms: _492  and  _494
REMARK  210  A    between atoms: _494  and  _495
REMARK  211  A    between atoms: _494  and  _497
REMARK  212  A    between atoms: _497  and  _498
REMARK  213  A    between atoms: _500  and  _502
REMARK  214  A    between atoms: _502  and  _503
REMARK  215  A    between atoms: _502  and  _505
REMARK  216  A    between atoms: _505  and  _506
REMARK  217  A    between atoms: _506  and  _507
REMARK  218  A    between atoms: _507  and  _508
REMARK  219  A    between atoms: _508  and  _509
REMARK  220  A    between atoms: _513  and  _515
REMARK  221  A    between atoms: _515  and  _516
REMARK  222  A    between atoms: _515  and  _518
REMARK  223  A    between atoms: _518  and  _519
REMARK  224  A    between atoms: _522  and  _524
REMARK  225  A    between atoms: _524  and  _525
REMARK  226  A    between atoms: _524  and  _527
REMARK  227  A    between atoms: _529  and  _531
REMARK  228  A    between atoms: _531  and  _532
REMARK  229  A    between atoms: _531  and  _534
REMARK  230  A    between atoms: _534  and  _535
REMARK  231  A    between atoms: _538  and  _540
REMARK  232  A    between atoms: _540  and  _541
REMARK  233  A    between atoms: _540  and  _543
REMARK  234  A    between atoms: _543  and  _544
REMARK  235  A    between atoms: _550  and  _552
REMARK  236  A    between atoms: _552  and  _553
REMARK  237  A    between atoms: _555  and  _557
REMARK  238  A    between atoms: _557  and  _558
REMARK  239  A    between atoms: _557  and  _560
REMARK  240  A    between atoms: _560  and  _561
REMARK  241  A    between atoms: _564  and  _566
REMARK  242  A    between atoms: _566  and  _567
REMARK  243  A    between atoms: _570  and  _572
REMARK  244  A    between atoms: _572  and  _573
REMARK  245  A    between atoms: _572  and  _575
REMARK  246  A    between atoms: _575  and  _576
REMARK  247  A    between atoms: _576  and  _577
REMARK  248  A    between atoms: _577  and  _578
REMARK                            x       y       z     vdW  Elec       q    Type
REMARK                         _______ _______ _______ _____ _____    ______ ____
ROOT
ATOM      1  CA  PHE A   6     -22.792   6.972 -16.097  0.00  0.00    +0.153 C 
ENDROOT
BRANCH   1   2
ATOM      2  C   PHE A   6     -21.993   7.709 -15.012  0.00  0.00    +0.241 C 
ATOM      3  N   CYS A   7     -21.113   6.991 -14.320  0.00  0.00    -0.296 N 
ATOM      4  H   CYS A   7     -21.038   5.971 -14.507  0.00  0.00    +0.150 HD
ATOM      5  O   PHE A   6     -22.181   8.904 -14.807  0.00  0.00    -0.273 OA
BRANCH   3   6
ATOM      6  CA  CYS A   7     -20.243   7.591 -13.300  0.00  0.00    +0.160 C 
BRANCH   6   7
ATOM      7  C   CYS A   7     -18.806   7.605 -13.805  0.00  0.00    +0.242 C 
ATOM      8  O   CYS A   7     -18.092   6.608 -13.714  0.00  0.00    -0.273 OA
ATOM      9  N   LYS A   8     -18.384   8.744 -14.338  0.00  0.00    -0.297 N 
ATOM     10  H   LYS A   8     -18.867   9.635 -14.102  0.00  0.00    +0.150 HD
BRANCH   9  11
ATOM     11  CA  LYS A   8     -17.252   8.756 -15.249  0.00  0.00    +0.149 C 
BRANCH  11  12
ATOM     12  C   LYS A   8     -15.939   8.353 -14.592  0.00  0.00    +0.241 C 
ATOM     13  N   PHE A   9     -15.829   8.524 -13.279  0.00  0.00    -0.297 N 
ATOM     14  H   PHE A   9     -16.644   8.859 -12.726  0.00  0.00    +0.150 HD
ATOM     15  O   LYS A   8     -15.030   7.883 -15.271  0.00  0.00    -0.273 OA
BRANCH  13  16
ATOM     16  CA  PHE A   9     -14.558   8.239 -12.614  0.00  0.00    +0.153 C 
BRANCH  16  17
ATOM     17  C   PHE A   9     -14.412   6.792 -12.152  0.00  0.00    +0.241 C 
ATOM     18  O   PHE A   9     -13.349   6.392 -11.679  0.00  0.00    -0.273 OA
ATOM     19  N   GLY A  10     -15.471   6.001 -12.305  0.00  0.00    -0.295 N 
ATOM     20  H   GLY A  10     -16.374   6.401 -12.631  0.00  0.00    +0.150 HD
BRANCH  19  21
ATOM     21  CA  GLY A  10     -15.369   4.580 -12.017  0.00  0.00    +0.176 C 
BRANCH  21  22
ATOM     22  C   GLY A  10     -15.333   4.266 -10.530  0.00  0.00    +0.243 C 
ATOM     23  O   GLY A  10     -15.714   5.098  -9.701  0.00  0.00    -0.273 OA
ATOM     24  N   ASN A  11     -14.860   3.069 -10.186  0.00  0.00    -0.298 N 
ATOM     25  H   ASN A  11     -14.456   2.448 -10.916  0.00  0.00    +0.150 HD
BRANCH  24  26
ATOM     26  CA  ASN A  11     -14.900   2.615  -8.797  0.00  0.00    +0.146 C 
BRANCH  26  27
ATOM     27  C   ASN A  11     -13.962   3.412  -7.893  0.00  0.00    +0.227 C 
ATOM     28  O   ASN A  11     -12.870   3.818  -8.293  0.00  0.00    -0.286 OA
ENDBRANCH  26  27
BRANCH  26  29
ATOM     29  CB  ASN A  11     -14.577   1.114  -8.708  0.00  0.00    +0.112 C 
BRANCH  29  30
ATOM     30  CG  ASN A  11     -13.085   0.830  -8.621  0.00  0.00    +0.222 C 
ATOM     31  OD1 ASN A  11     -12.488   0.926  -7.551  0.00  0.00    -0.275 OA
ATOM     32  ND2 ASN A  11     -12.480   0.471  -9.748  0.00  0.00    -0.329 N 
ATOM     33 HD21 ASN A  11     -11.462   0.258  -9.747  0.00  0.00    +0.145 HD
ATOM     34 HD22 ASN A  11     -13.024   0.403 -10.631  0.00  0.00    +0.145 HD
ENDBRANCH  29  30
ENDBRANCH  26  29
ENDBRANCH  24  26
ENDBRANCH  21  22
ENDBRANCH  19  21
ENDBRANCH  16  17
BRANCH  16  35
ATOM     35  CB  PHE A   9     -14.348   9.202 -11.439  0.00  0.00    +0.055 C 
BRANCH  35  36
ATOM     36  CG  PHE A   9     -14.165  10.632 -11.863  0.00  0.00    -0.020 A 
ATOM     37  CD2 PHE A   9     -15.203  11.544 -11.750  0.00  0.00    -0.004 A 
ATOM     38  CE2 PHE A   9     -15.052  12.855 -12.182  0.00  0.00    -0.000 A 
ATOM     39  CZ  PHE A   9     -13.848  13.263 -12.734  0.00  0.00    -0.000 A 
ATOM     40  CE1 PHE A   9     -12.804  12.365 -12.850  0.00  0.00    -0.000 A 
ATOM     41  CD1 PHE A   9     -12.964  11.056 -12.415  0.00  0.00    -0.004 A 
ENDBRANCH  35  36
ENDBRANCH  16  35
ENDBRANCH  13  16
ENDBRANCH  11  12
BRANCH  11  42
ATOM     42  CB  LYS A   8     -17.106  10.136 -15.898  0.00  0.00    +0.029 C 
BRANCH  42  43
ATOM     43  CG  LYS A   8     -16.544  11.206 -14.982  0.00  0.00    +0.000 C 
BRANCH  43  44
ATOM     44  CD  LYS A   8     -16.634  12.584 -15.627  0.00  0.00    -0.024 C 
BRANCH  44  45
ATOM     45  CE  LYS A   8     -15.961  12.606 -16.991  0.00  0.00    -0.086 C 
BRANCH  45  46
ATOM     46  NZ  LYS A   8     -14.491  12.372 -16.897  0.00  0.00    +0.380 N 
ATOM     47  HZ1 LYS A   8     -14.060  13.115 -16.311  0.00  0.00    -0.089 HD
ATOM     48  HZ2 LYS A   8     -14.316  11.443 -16.464  0.00  0.00    -0.089 HD
ATOM     49  HZ3 LYS A   8     -14.076  12.396 -17.850  0.00  0.00    -0.089 HD
ENDBRANCH  45  46
ENDBRANCH  44  45
ENDBRANCH  43  44
ENDBRANCH  42  43
ENDBRANCH  11  42
ENDBRANCH   9  11
ENDBRANCH   6   7
BRANCH   6  50
ATOM     50  CB  CYS A   7     -20.323   6.793 -11.996  0.00  0.00    +0.098 C 
ATOM     51  SG  CYS A   7     -21.994   6.694 -11.316  0.00  0.00    -0.080 S 
ENDBRANCH   6  50
ENDBRANCH   3   6
ENDBRANCH   1   2
BRANCH   1  54
ATOM     52  C   GLU A   5     -24.967   6.570 -15.069  0.00  0.00    +0.241 C 
ATOM     53  O   GLU A   5     -24.525   5.692 -14.331  0.00  0.00    -0.273 OA
ATOM     54  N   PHE A   6     -24.215   7.238 -15.933  0.00  0.00    -0.297 N 
ATOM     55  H   PHE A   6     -24.657   7.978 -16.514  0.00  0.00    +0.150 HD
BRANCH  52  56
ATOM     56  CA  GLU A   5     -26.436   6.961 -15.019  0.00  0.00    +0.149 C 
BRANCH  56  58
ATOM     57  C   VAL A   4     -27.275   4.787 -15.677  0.00  0.00    +0.241 C 
ATOM     58  N   GLU A   5     -27.265   5.783 -14.797  0.00  0.00    -0.297 N 
ATOM     59  H   GLU A   5     -27.854   5.721 -13.942  0.00  0.00    +0.150 HD
ATOM     60  O   VAL A   4     -26.580   4.788 -16.697  0.00  0.00    -0.273 OA
BRANCH  57  61
ATOM     61  CA  VAL A   4     -28.193   3.617 -15.354  0.00  0.00    +0.149 C 
BRANCH  61  64
ATOM     62  C   ILE A   3     -29.591   2.396 -16.937  0.00  0.00    +0.241 C 
ATOM     63  O   ILE A   3     -30.628   2.807 -16.413  0.00  0.00    -0.273 OA
ATOM     64  N   VAL A   4     -28.378   2.730 -16.503  0.00  0.00    -0.297 N 
ATOM     65  H   VAL A   4     -27.542   2.352 -16.992  0.00  0.00    +0.150 HD
BRANCH  62  66
ATOM     66  CA  ILE A   3     -29.650   1.469 -18.149  0.00  0.00    +0.149 C 
BRANCH  66  69
ATOM     67  C   VAL A   2     -29.679  -0.922 -17.638  0.00  0.00    +0.241 C 
ATOM     68  O   VAL A   2     -28.449  -0.996 -17.558  0.00  0.00    -0.273 OA
ATOM     69  N   ILE A   3     -30.335   0.220 -17.824  0.00  0.00    -0.297 N 
ATOM     70  H   ILE A   3     -31.371   0.224 -17.735  0.00  0.00    +0.150 HD
BRANCH  67  71
ATOM     71  CA  VAL A   2     -30.538  -2.168 -17.520  0.00  0.00    +0.148 C 
BRANCH  71  73
ATOM     72  C   MET A   1     -31.054  -3.233 -19.632  0.00  0.00    +0.238 C 
ATOM     73  N   VAL A   2     -30.214  -3.057 -18.619  0.00  0.00    -0.297 N 
ATOM     74  H   VAL A   2     -29.307  -3.566 -18.614  0.00  0.00    +0.150 HD
ATOM     75  O   MET A   1     -32.175  -2.727 -19.682  0.00  0.00    -0.274 OA
BRANCH  72  76
ATOM     76  CA  MET A   1     -30.569  -4.130 -20.750  0.00  0.00    +0.146 C 
BRANCH  76  77
ATOM     77  N   MET A   1     -31.557  -5.165 -21.014  0.00  0.00    -0.238 NA
ATOM     78  H   MET A   1     -32.551  -4.896 -21.161  0.00  0.00    +0.142 HD
ENDBRANCH  76  77
BRANCH  76  79
ATOM     79  CB  MET A   1     -30.337  -3.298 -22.009  0.00  0.00    +0.038 C 
BRANCH  79  80
ATOM     80  CG  MET A   1     -29.465  -3.995 -23.041  0.00  0.00    +0.060 C 
BRANCH  80  81
ATOM     81  SD  MET A   1     -29.490  -3.110 -24.599  0.00  0.00    -0.139 S 
ATOM     82  CE  MET A   1     -28.556  -4.245 -25.651  0.00  0.00    +0.069 C 
ENDBRANCH  80  81
ENDBRANCH  79  80
ENDBRANCH  76  79
ENDBRANCH  72  76
ENDBRANCH  71  73
BRANCH  71  83
ATOM     83  CB  VAL A   2     -30.277  -2.854 -16.160  0.00  0.00    +0.027 C 
ATOM     84  CG2 VAL A   2     -30.589  -1.887 -15.018  0.00  0.00    +0.002 C 
ATOM     85  CG1 VAL A   2     -31.144  -4.109 -16.044  0.00  0.00    +0.002 C 
ENDBRANCH  71  83
ENDBRANCH  67  71
ENDBRANCH  66  69
BRANCH  66  86
ATOM     86  CB  ILE A   3     -30.381   2.214 -19.284  0.00  0.00    +0.027 C 
ATOM     87  CG2 ILE A   3     -29.584   3.453 -19.692  0.00  0.00    +0.002 C 
BRANCH  86  88
ATOM     88  CG1 ILE A   3     -30.589   1.268 -20.474  0.00  0.00    +0.002 C 
ATOM     89  CD1 ILE A   3     -31.628   1.761 -21.471  0.00  0.00    +0.000 C 
ENDBRANCH  86  88
ENDBRANCH  66  86
ENDBRANCH  62  66
ENDBRANCH  61  64
BRANCH  61  90
ATOM     90  CB  VAL A   4     -27.590   2.871 -14.160  0.00  0.00    +0.027 C 
ATOM     91  CG2 VAL A   4     -28.480   1.704 -13.778  0.00  0.00    +0.002 C 
ATOM     92  CG1 VAL A   4     -26.161   2.400 -14.510  0.00  0.00    +0.002 C 
ENDBRANCH  61  90
ENDBRANCH  57  61
ENDBRANCH  56  58
BRANCH  56  93
ATOM     93  CB  GLU A   5     -26.641   7.970 -13.897  0.00  0.00    +0.041 C 
BRANCH  93  94
ATOM     94  CG  GLU A   5     -26.077   7.521 -12.563  0.00  0.00    +0.116 C 
BRANCH  94  95
ATOM     95  CD  GLU A   5     -26.430   8.487 -11.453  0.00  0.00    +0.365 C 
ATOM     96  OE2 GLU A   5     -26.770   8.022 -10.340  0.00  0.00    -0.246 OA
ATOM     97  OE1 GLU A   5     -26.377   9.711 -11.703  0.00  0.00    -0.246 OA
ENDBRANCH  94  95
ENDBRANCH  93  94
ENDBRANCH  56  93
ENDBRANCH  52  56
ENDBRANCH   1  54
BRANCH   1  98
ATOM     98  CB  PHE A   6     -22.363   7.434 -17.497  0.00  0.00    +0.055 C 
BRANCH  98  99
ATOM     99  CG  PHE A   6     -20.920   7.164 -17.823  0.00  0.00    -0.020 A 
ATOM    100  CD2 PHE A   6     -20.022   8.210 -17.952  0.00  0.00    -0.004 A 
ATOM    101  CE2 PHE A   6     -18.703   7.976 -18.302  0.00  0.00    -0.000 A 
ATOM    102  CZ  PHE A   6     -18.265   6.684 -18.525  0.00  0.00    -0.000 A 
ATOM    103  CE1 PHE A   6     -19.148   5.627 -18.396  0.00  0.00    -0.000 A 
ATOM    104  CD1 PHE A   6     -20.472   5.870 -18.046  0.00  0.00    -0.004 A 
ENDBRANCH  98  99
ENDBRANCH   1  98
TORSDOF 44
REMARK  Name = ../refined-set-2016/4ase/4ase_pocket.pdb
REMARK  248 active torsions:
REMARK  status: ('A' for Active; 'I' for Inactive)
REMARK    1  A    between atoms: _1  and  _3
REMARK    2  A    between atoms: _3  and  _4
REMARK    3  A    between atoms: _3  and  _6
REMARK    4  A    between atoms: _6  and  _7
REMARK    5  A    between atoms: _10  and  _12
REMARK    6  A    between atoms: _12  and  _13
REMARK    7  A    between atoms: _12  and  _15
REMARK    8  A    between atoms: _15  and  _16
REMARK    9  A    between atoms: _16  and  _17
REMARK   10  A    between atoms: _17  and  _18
REMARK   11  A    between atoms: _18  and  _19
REMARK   12  A    between atoms: _24  and  _25
REMARK   13  A    between atoms: _30  and  _32
REMARK   14  A    between atoms: _32  and  _33
REMARK   15  A    between atoms: _32  and  _35
REMARK   16  A    between atoms: _35  and  _36
REMARK   17  A    between atoms: _39  and  _41
REMARK   18  A    between atoms: _41  and  _42
REMARK   19  A    between atoms: _44  and  _46
REMARK   20  A    between atoms: _46  and  _47
REMARK   21  A    between atoms: _46  and  _49
REMARK   22  A    between atoms: _49  and  _50
REMARK   23  A    between atoms: _50  and  _51
REMARK   24  A    between atoms: _51  and  _52
REMARK   25  A    between atoms: _61  and  _63
REMARK   26  A    between atoms: _63  and  _64
REMARK   27  A    between atoms: _63  and  _66
REMARK   28  A    between atoms: _66  and  _67
REMARK   29  A    between atoms: _67  and  _68
REMARK   30  A    between atoms: _73  and  _75
REMARK   31  A    between atoms: _75  and  _76
REMARK   32  A    between atoms: _75  and  _78
REMARK   33  A    between atoms: _81  and  _83
REMARK   34  A    between atoms: _83  and  _84
REMARK   35  A    between atoms: _83  and  _86
REMARK   36  A    between atoms: _86  and  _87
REMARK   37  A    between atoms: _90  and  _92
REMARK   38  A    between atoms: _92  and  _93
REMARK   39  A    between atoms: _92  and  _95
REMARK   40  A    between atoms: _95  and  _96
REMARK   41  A    between atoms: _96  and  _97
REMARK   42  A    between atoms: _100  and  _102
REMARK   43  A    between atoms: _102  and  _103
REMARK   44  A    between atoms: _102  and  _105
REMARK   45  A    between atoms: _105  and  _106
REMARK   46  A    between atoms: _109  and  _111
REMARK   47  A    between atoms: _111  and  _112
REMARK   48  A    between atoms: _111  and  _114
REMARK   49  A    between atoms: _117  and  _119
REMARK   50  A    between atoms: _119  and  _120
REMARK   51  A    between atoms: _123  and  _125
REMARK   52  A    between atoms: _125  and  _126
REMARK   53  A    between atoms: _125  and  _128
REMARK   54  A    between atoms: _131  and  _133
REMARK   55  A    between atoms: _133  and  _134
REMARK   56  A    between atoms: _133  and  _136
REMARK   57  A    between atoms: _136  and  _137
REMARK   58  A    between atoms: _137  and  _138
REMARK   59  A    between atoms: _138  and  _139
REMARK   60  A    between atoms: _139  and  _140
REMARK   61  A    between atoms: _144  and  _146
REMARK   62  A    between atoms: _146  and  _147
REMARK   63  A    between atoms: _146  and  _149
REMARK   64  A    between atoms: _149  and  _150
REMARK   65  A    between atoms: _150  and  _151
REMARK   66  A    between atoms: _153  and  _155
REMARK   67  A    between atoms: _155  and  _156
REMARK   68  A    between atoms: _155  and  _158
REMARK   69  A    between atoms: _158  and  _159
REMARK   70  A    between atoms: _162  and  _164
REMARK   71  A    between atoms: _164  and  _165
REMARK   72  A    between atoms: _164  and  _167
REMARK   73  A    between atoms: _167  and  _168
REMARK   74  A    between atoms: _170  and  _172
REMARK   75  A    between atoms: _172  and  _173
REMARK   76  A    between atoms: _172  and  _175
REMARK   77  A    between atoms: _175  and  _176
REMARK   78  A    between atoms: _176  and  _177
REMARK   79  A    between atoms: _180  and  _182
REMARK   80  A    between atoms: _182  and  _183
REMARK   81  A    between atoms: _182  and  _185
REMARK   82  A    between atoms: _185  and  _186
REMARK   83  A    between atoms: _189  and  _191
REMARK   84  A    between atoms: _191  and  _192
REMARK   85  A    between atoms: _191  and  _194
REMARK   86  A    between atoms: _194  and  _195
REMARK   87  A    between atoms: _198  and  _200
REMARK   88  A    between atoms: _200  and  _201
REMARK   89  A    between atoms: _200  and  _203
REMARK   90  A    between atoms: _203  and  _204
REMARK   91  A    between atoms: _207  and  _209
REMARK   92  A    between atoms: _209  and  _210
REMARK   93  A    between atoms: _209  and  _212
REMARK   94  A    between atoms: _212  and  _213
REMARK   95  A    between atoms: _216  and  _218
REMARK   96  A    between atoms: _218  and  _219
REMARK   97  A    between atoms: _218  and  _221
REMARK   98  A    between atoms: _221  and  _222
REMARK   99  A    between atoms: _225  and  _227
REMARK  100  A    between atoms: _227  and  _228
REMARK  101  A    between atoms: _227  and  _230
REMARK  102  A    between atoms: _233  and  _235
REMARK  103  A    between atoms: _235  and  _236
REMARK  104  A    between atoms: _235  and  _238
REMARK  105  A    between atoms: _241  and  _243
REMARK  106  A    between atoms: _243  and  _244
REMARK  107  A    between atoms: _243  and  _246
REMARK  108  A    between atoms: _246  and  _247
REMARK  109  A    between atoms: _252  and  _254
REMARK  110  A    between atoms: _254  and  _255
REMARK  111  A    between atoms: _254  and  _257
REMARK  112  A    between atoms: _257  and  _258
REMARK  113  A    between atoms: _261  and  _263
REMARK  114  A    between atoms: _263  and  _264
REMARK  115  A    between atoms: _263  and  _266
REMARK  116  A    between atoms: _266  and  _267
REMARK  117  A    between atoms: _270  and  _272
REMARK  118  A    between atoms: _272  and  _273
REMARK  119  A    between atoms: _275  and  _277
REMARK  120  A    between atoms: _277  and  _278
REMARK  121  A    between atoms: _277  and  _280
REMARK  122  A    between atoms: _280  and  _281
REMARK  123  A    between atoms: _281  and  _282
REMARK  124  A    between atoms: _284  and  _286
REMARK  125  A    between atoms: _286  and  _287
REMARK  126  A    between atoms: _286  and  _289
REMARK  127  A    between atoms: _292  and  _294
REMARK  128  A    between atoms: _294  and  _295
REMARK  129  A    between atoms: _294  and  _297
REMARK  130  A    between atoms: _297  and  _298
REMARK  131  A    between atoms: _301  and  _303
REMARK  132  A    between atoms: _303  and  _304
REMARK  133  A    between atoms: _303  and  _306
REMARK  134  A    between atoms: _309  and  _311
REMARK  135  A    between atoms: _311  and  _312
REMARK  136  A    between atoms: _311  and  _314
REMARK  137  A    between atoms: _314  and  _315
REMARK  138  A    between atoms: _315  and  _316
REMARK  139  A    between atoms: _319  and  _321
REMARK  140  A    between atoms: _321  and  _322
REMARK  141  A    between atoms: _321  and  _324
REMARK  142  A    between atoms: _324  and  _325
REMARK  143  A    between atoms: _331  and  _333
REMARK  144  A    between atoms: _333  and  _334
REMARK  145  A    between atoms: _333  and  _336
REMARK  146  A    between atoms: _338  and  _340
REMARK  147  A    between atoms: _340  and  _341
REMARK  148  A    between atoms: _340  and  _343
REMARK  149  A    between atoms: _343  and  _344
REMARK  150  A    between atoms: _344  and  _345
REMARK  151  A    between atoms: _345  and  _346
REMARK  152  A    between atoms: _346  and  _347
REMARK  153  A    between atoms: _351  and  _353
REMARK  154  A    between atoms: _353  and  _354
REMARK  155  A    between atoms: _353  and  _356
REMARK  156  A    between atoms: _356  and  _357
REMARK  157  A    between atoms: _363  and  _365
REMARK  158  A    between atoms: _365  and  _366
REMARK  159  A    between atoms: _368  and  _370
REMARK  160  A    between atoms: _370  and  _371
REMARK  161  A    between atoms: _370  and  _373
REMARK  162  A    between atoms: _373  and  _374
REMARK  163  A    between atoms: _379  and  _381
REMARK  164  A    between atoms: _381  and  _382
REMARK  165  A    between atoms: _384  and  _386
REMARK  166  A    between atoms: _386  and  _387
REMARK  167  A    between atoms: _386  and  _389
REMARK  168  A    between atoms: _389  and  _390
REMARK  169  A    between atoms: _390  and  _391
REMARK  170  A    between atoms: _393  and  _395
REMARK  171  A    between atoms: _395  and  _396
REMARK  172  A    between atoms: _395  and  _398
REMARK  173  A    between atoms: _398  and  _399
REMARK  174  A    between atoms: _402  and  _404
REMARK  175  A    between atoms: _404  and  _405
REMARK  176  A    between atoms: _404  and  _407
REMARK  177  A    between atoms: _409  and  _411
REMARK  178  A    between atoms: _411  and  _412
REMARK  179  A    between atoms: _411  and  _414
REMARK  180  A    between atoms: _414  and  _415
REMARK  181  A    between atoms: _418  and  _420
REMARK  182  A    between atoms: _420  and  _421
REMARK  183  A    between atoms: _420  and  _423
REMARK  184  A    between atoms: _423  and  _424
REMARK  185  A    between atoms: _429  and  _431
REMARK  186  A    between atoms: _431  and  _432
REMARK  187  A    between atoms: _431  and  _434
REMARK  188  A    between atoms: _434  and  _435
REMARK  189  A    between atoms: _435  and  _436
REMARK  190  A    between atoms: _436  and  _437
REMARK  191  A    between atoms: _446  and  _448
REMARK  192  A    between atoms: _448  and  _449
REMARK  193  A    between atoms: _448  and  _451
REMARK  194  A    between atoms: _451  and  _452
REMARK  195  A    between atoms: _452  and  _453
REMARK  196  A    between atoms: _453  and  _454
REMARK  197  A    between atoms: _463  and  _465
REMARK  198  A    between atoms: _465  and  _466
REMARK  199  A    between atoms: _465  and  _468
REMARK  200  A    between atoms: _468  and  _469
REMARK  201  A    between atoms: _474  and  _476
REMARK  202  A    between atoms: _476  and  _477
REMARK  203  A    between atoms: _476  and  _479
REMARK  204  A    between atoms: _479  and  _480
REMARK  205  A    between atoms: _483  and  _485
REMARK  206  A    between atoms: _485  and  _486
REMARK  207  A    between atoms: _485  and  _488
REMARK  208  A    between atoms: _488  and  _489
REMARK  209  A    between atoms: _492  and  _494
REMARK  210  A    between atoms: _494  and  _495
REMARK  211  A    between atoms: _494  and  _497
REMARK  212  A    between atoms: _497  and  _498
REMARK  213  A    between atoms: _500  and  _502
REMARK  214  A    between atoms: _502  and  _503
REMARK  215  A    between atoms: _502  and  _505
REMARK  216  A    between atoms: _505  and  _506
REMARK  217  A    between atoms: _506  and  _507
REMARK  218  A    between atoms: _507  and  _508
REMARK  219  A    between atoms: _508  and  _509
REMARK  220  A    between atoms: _513  and  _515
REMARK  221  A    between atoms: _515  and  _516
REMARK  222  A    between atoms: _515  and  _518
REMARK  223  A    between atoms: _518  and  _519
REMARK  224  A    between atoms: _522  and  _524
REMARK  225  A    between atoms: _524  and  _525
REMARK  226  A    between atoms: _524  and  _527
REMARK  227  A    between atoms: _529  and  _531
REMARK  228  A    between atoms: _531  and  _532
REMARK  229  A    between atoms: _531  and  _534
REMARK  230  A    between atoms: _534  and  _535
REMARK  231  A    between atoms: _538  and  _540
REMARK  232  A    between atoms: _540  and  _541
REMARK  233  A    between atoms: _540  and  _543
REMARK  234  A    between atoms: _543  and  _544
REMARK  235  A    between atoms: _550  and  _552
REMARK  236  A    between atoms: _552  and  _553
REMARK  237  A    between atoms: _555  and  _557
REMARK  238  A    between atoms: _557  and  _558
REMARK  239  A    between atoms: _557  and  _560
REMARK  240  A    between atoms: _560  and  _561
REMARK  241  A    between atoms: _564  and  _566
REMARK  242  A    between atoms: _566  and  _567
REMARK  243  A    between atoms: _570  and  _572
REMARK  244  A    between atoms: _572  and  _573
REMARK  245  A    between atoms: _572  and  _575
REMARK  246  A    between atoms: _575  and  _576
REMARK  247  A    between atoms: _576  and  _577
REMARK  248  A    between atoms: _577  and  _578
REMARK                            x       y       z     vdW  Elec       q    Type
REMARK                         _______ _______ _______ _____ _____    ______ ____
ROOT
ATOM      1  C   GLY A   1     -27.460   4.520   1.281  0.00  0.00    +0.240 C 
ATOM      2  N   MET A   2     -26.645   4.046   2.217  0.00  0.00    -0.298 N 
ATOM      3  H   MET A   2     -25.765   4.554   2.438  0.00  0.00    +0.150 HD
ATOM      4  O   GLY A   1     -28.509   3.957   0.962  0.00  0.00    -0.274 OA
ENDROOT
BRANCH   1   5
ATOM      5  CA  GLY A   1     -27.046   5.818   0.615  0.00  0.00    +0.169 C 
BRANCH   5   6
ATOM      6  N   GLY A   1     -26.484   6.753   1.572  0.00  0.00    -0.236 NA
ATOM      7  H   GLY A   1     -25.495   7.060   1.476  0.00  0.00    +0.142 HD
ENDBRANCH   5   6
ENDBRANCH   1   5
BRANCH   2   8
ATOM      8  CA  MET A   2     -26.973   2.819   2.938  0.00  0.00    +0.138 C 
BRANCH   8   9
ATOM      9  C   MET A   2     -28.162   3.004   3.877  0.00  0.00    +0.227 C 
ATOM     10  O   MET A   2     -29.010   2.112   3.991  0.00  0.00    -0.286 OA
ENDBRANCH   8   9
BRANCH   8  11
ATOM     11  CB  MET A   2     -25.754   2.319   3.721  0.00  0.00    +0.039 C 
BRANCH  11  12
ATOM     12  CG  MET A   2     -24.677   1.682   2.841  0.00  0.00    +0.060 C 
BRANCH  12  13
ATOM     13  SD  MET A   2     -25.290   0.289   1.844  0.00  0.00    -0.139 S 
ATOM     14  CE  MET A   2     -25.744  -0.897   3.112  0.00  0.00    +0.069 C 
ENDBRANCH  12  13
ENDBRANCH  11  12
ENDBRANCH   8  11
ENDBRANCH   2   8
TORSDOF 7
REMARK  Name = ../refined-set-2016/4ase/4ase_pocket.pdb
REMARK  248 active torsions:
REMARK  status: ('A' for Active; 'I' for Inactive)
REMARK    1  A    between atoms: _1  and  _3
REMARK    2  A    between atoms: _3  and  _4
REMARK    3  A    between atoms: _3  and  _6
REMARK    4  A    between atoms: _6  and  _7
REMARK    5  A    between atoms: _10  and  _12
REMARK    6  A    between atoms: _12  and  _13
REMARK    7  A    between atoms: _12  and  _15
REMARK    8  A    between atoms: _15  and  _16
REMARK    9  A    between atoms: _16  and  _17
REMARK   10  A    between atoms: _17  and  _18
REMARK   11  A    between atoms: _18  and  _19
REMARK   12  A    between atoms: _24  and  _25
REMARK   13  A    between atoms: _30  and  _32
REMARK   14  A    between atoms: _32  and  _33
REMARK   15  A    between atoms: _32  and  _35
REMARK   16  A    between atoms: _35  and  _36
REMARK   17  A    between atoms: _39  and  _41
REMARK   18  A    between atoms: _41  and  _42
REMARK   19  A    between atoms: _44  and  _46
REMARK   20  A    between atoms: _46  and  _47
REMARK   21  A    between atoms: _46  and  _49
REMARK   22  A    between atoms: _49  and  _50
REMARK   23  A    between atoms: _50  and  _51
REMARK   24  A    between atoms: _51  and  _52
REMARK   25  A    between atoms: _61  and  _63
REMARK   26  A    between atoms: _63  and  _64
REMARK   27  A    between atoms: _63  and  _66
REMARK   28  A    between atoms: _66  and  _67
REMARK   29  A    between atoms: _67  and  _68
REMARK   30  A    between atoms: _73  and  _75
REMARK   31  A    between atoms: _75  and  _76
REMARK   32  A    between atoms: _75  and  _78
REMARK   33  A    between atoms: _81  and  _83
REMARK   34  A    between atoms: _83  and  _84
REMARK   35  A    between atoms: _83  and  _86
REMARK   36  A    between atoms: _86  and  _87
REMARK   37  A    between atoms: _90  and  _92
REMARK   38  A    between atoms: _92  and  _93
REMARK   39  A    between atoms: _92  and  _95
REMARK   40  A    between atoms: _95  and  _96
REMARK   41  A    between atoms: _96  and  _97
REMARK   42  A    between atoms: _100  and  _102
REMARK   43  A    between atoms: _102  and  _103
REMARK   44  A    between atoms: _102  and  _105
REMARK   45  A    between atoms: _105  and  _106
REMARK   46  A    between atoms: _109  and  _111
REMARK   47  A    between atoms: _111  and  _112
REMARK   48  A    between atoms: _111  and  _114
REMARK   49  A    between atoms: _117  and  _119
REMARK   50  A    between atoms: _119  and  _120
REMARK   51  A    between atoms: _123  and  _125
REMARK   52  A    between atoms: _125  and  _126
REMARK   53  A    between atoms: _125  and  _128
REMARK   54  A    between atoms: _131  and  _133
REMARK   55  A    between atoms: _133  and  _134
REMARK   56  A    between atoms: _133  and  _136
REMARK   57  A    between atoms: _136  and  _137
REMARK   58  A    between atoms: _137  and  _138
REMARK   59  A    between atoms: _138  and  _139
REMARK   60  A    between atoms: _139  and  _140
REMARK   61  A    between atoms: _144  and  _146
REMARK   62  A    between atoms: _146  and  _147
REMARK   63  A    between atoms: _146  and  _149
REMARK   64  A    between atoms: _149  and  _150
REMARK   65  A    between atoms: _150  and  _151
REMARK   66  A    between atoms: _153  and  _155
REMARK   67  A    between atoms: _155  and  _156
REMARK   68  A    between atoms: _155  and  _158
REMARK   69  A    between atoms: _158  and  _159
REMARK   70  A    between atoms: _162  and  _164
REMARK   71  A    between atoms: _164  and  _165
REMARK   72  A    between atoms: _164  and  _167
REMARK   73  A    between atoms: _167  and  _168
REMARK   74  A    between atoms: _170  and  _172
REMARK   75  A    between atoms: _172  and  _173
REMARK   76  A    between atoms: _172  and  _175
REMARK   77  A    between atoms: _175  and  _176
REMARK   78  A    between atoms: _176  and  _177
REMARK   79  A    between atoms: _180  and  _182
REMARK   80  A    between atoms: _182  and  _183
REMARK   81  A    between atoms: _182  and  _185
REMARK   82  A    between atoms: _185  and  _186
REMARK   83  A    between atoms: _189  and  _191
REMARK   84  A    between atoms: _191  and  _192
REMARK   85  A    between atoms: _191  and  _194
REMARK   86  A    between atoms: _194  and  _195
REMARK   87  A    between atoms: _198  and  _200
REMARK   88  A    between atoms: _200  and  _201
REMARK   89  A    between atoms: _200  and  _203
REMARK   90  A    between atoms: _203  and  _204
REMARK   91  A    between atoms: _207  and  _209
REMARK   92  A    between atoms: _209  and  _210
REMARK   93  A    between atoms: _209  and  _212
REMARK   94  A    between atoms: _212  and  _213
REMARK   95  A    between atoms: _216  and  _218
REMARK   96  A    between atoms: _218  and  _219
REMARK   97  A    between atoms: _218  and  _221
REMARK   98  A    between atoms: _221  and  _222
REMARK   99  A    between atoms: _225  and  _227
REMARK  100  A    between atoms: _227  and  _228
REMARK  101  A    between atoms: _227  and  _230
REMARK  102  A    between atoms: _233  and  _235
REMARK  103  A    between atoms: _235  and  _236
REMARK  104  A    between atoms: _235  and  _238
REMARK  105  A    between atoms: _241  and  _243
REMARK  106  A    between atoms: _243  and  _244
REMARK  107  A    between atoms: _243  and  _246
REMARK  108  A    between atoms: _246  and  _247
REMARK  109  A    between atoms: _252  and  _254
REMARK  110  A    between atoms: _254  and  _255
REMARK  111  A    between atoms: _254  and  _257
REMARK  112  A    between atoms: _257  and  _258
REMARK  113  A    between atoms: _261  and  _263
REMARK  114  A    between atoms: _263  and  _264
REMARK  115  A    between atoms: _263  and  _266
REMARK  116  A    between atoms: _266  and  _267
REMARK  117  A    between atoms: _270  and  _272
REMARK  118  A    between atoms: _272  and  _273
REMARK  119  A    between atoms: _275  and  _277
REMARK  120  A    between atoms: _277  and  _278
REMARK  121  A    between atoms: _277  and  _280
REMARK  122  A    between atoms: _280  and  _281
REMARK  123  A    between atoms: _281  and  _282
REMARK  124  A    between atoms: _284  and  _286
REMARK  125  A    between atoms: _286  and  _287
REMARK  126  A    between atoms: _286  and  _289
REMARK  127  A    between atoms: _292  and  _294
REMARK  128  A    between atoms: _294  and  _295
REMARK  129  A    between atoms: _294  and  _297
REMARK  130  A    between atoms: _297  and  _298
REMARK  131  A    between atoms: _301  and  _303
REMARK  132  A    between atoms: _303  and  _304
REMARK  133  A    between atoms: _303  and  _306
REMARK  134  A    between atoms: _309  and  _311
REMARK  135  A    between atoms: _311  and  _312
REMARK  136  A    between atoms: _311  and  _314
REMARK  137  A    between atoms: _314  and  _315
REMARK  138  A    between atoms: _315  and  _316
REMARK  139  A    between atoms: _319  and  _321
REMARK  140  A    between atoms: _321  and  _322
REMARK  141  A    between atoms: _321  and  _324
REMARK  142  A    between atoms: _324  and  _325
REMARK  143  A    between atoms: _331  and  _333
REMARK  144  A    between atoms: _333  and  _334
REMARK  145  A    between atoms: _333  and  _336
REMARK  146  A    between atoms: _338  and  _340
REMARK  147  A    between atoms: _340  and  _341
REMARK  148  A    between atoms: _340  and  _343
REMARK  149  A    between atoms: _343  and  _344
REMARK  150  A    between atoms: _344  and  _345
REMARK  151  A    between atoms: _345  and  _346
REMARK  152  A    between atoms: _346  and  _347
REMARK  153  A    between atoms: _351  and  _353
REMARK  154  A    between atoms: _353  and  _354
REMARK  155  A    between atoms: _353  and  _356
REMARK  156  A    between atoms: _356  and  _357
REMARK  157  A    between atoms: _363  and  _365
REMARK  158  A    between atoms: _365  and  _366
REMARK  159  A    between atoms: _368  and  _370
REMARK  160  A    between atoms: _370  and  _371
REMARK  161  A    between atoms: _370  and  _373
REMARK  162  A    between atoms: _373  and  _374
REMARK  163  A    between atoms: _379  and  _381
REMARK  164  A    between atoms: _381  and  _382
REMARK  165  A    between atoms: _384  and  _386
REMARK  166  A    between atoms: _386  and  _387
REMARK  167  A    between atoms: _386  and  _389
REMARK  168  A    between atoms: _389  and  _390
REMARK  169  A    between atoms: _390  and  _391
REMARK  170  A    between atoms: _393  and  _395
REMARK  171  A    between atoms: _395  and  _396
REMARK  172  A    between atoms: _395  and  _398
REMARK  173  A    between atoms: _398  and  _399
REMARK  174  A    between atoms: _402  and  _404
REMARK  175  A    between atoms: _404  and  _405
REMARK  176  A    between atoms: _404  and  _407
REMARK  177  A    between atoms: _409  and  _411
REMARK  178  A    between atoms: _411  and  _412
REMARK  179  A    between atoms: _411  and  _414
REMARK  180  A    between atoms: _414  and  _415
REMARK  181  A    between atoms: _418  and  _420
REMARK  182  A    between atoms: _420  and  _421
REMARK  183  A    between atoms: _420  and  _423
REMARK  184  A    between atoms: _423  and  _424
REMARK  185  A    between atoms: _429  and  _431
REMARK  186  A    between atoms: _431  and  _432
REMARK  187  A    between atoms: _431  and  _434
REMARK  188  A    between atoms: _434  and  _435
REMARK  189  A    between atoms: _435  and  _436
REMARK  190  A    between atoms: _436  and  _437
REMARK  191  A    between atoms: _446  and  _448
REMARK  192  A    between atoms: _448  and  _449
REMARK  193  A    between atoms: _448  and  _451
REMARK  194  A    between atoms: _451  and  _452
REMARK  195  A    between atoms: _452  and  _453
REMARK  196  A    between atoms: _453  and  _454
REMARK  197  A    between atoms: _463  and  _465
REMARK  198  A    between atoms: _465  and  _466
REMARK  199  A    between atoms: _465  and  _468
REMARK  200  A    between atoms: _468  and  _469
REMARK  201  A    between atoms: _474  and  _476
REMARK  202  A    between atoms: _476  and  _477
REMARK  203  A    between atoms: _476  and  _479
REMARK  204  A    between atoms: _479  and  _480
REMARK  205  A    between atoms: _483  and  _485
REMARK  206  A    between atoms: _485  and  _486
REMARK  207  A    between atoms: _485  and  _488
REMARK  208  A    between atoms: _488  and  _489
REMARK  209  A    between atoms: _492  and  _494
REMARK  210  A    between atoms: _494  and  _495
REMARK  211  A    between atoms: _494  and  _497
REMARK  212  A    between atoms: _497  and  _498
REMARK  213  A    between atoms: _500  and  _502
REMARK  214  A    between atoms: _502  and  _503
REMARK  215  A    between atoms: _502  and  _505
REMARK  216  A    between atoms: _505  and  _506
REMARK  217  A    between atoms: _506  and  _507
REMARK  218  A    between atoms: _507  and  _508
REMARK  219  A    between atoms: _508  and  _509
REMARK  220  A    between atoms: _513  and  _515
REMARK  221  A    between atoms: _515  and  _516
REMARK  222  A    between atoms: _515  and  _518
REMARK  223  A    between atoms: _518  and  _519
REMARK  224  A    between atoms: _522  and  _524
REMARK  225  A    between atoms: _524  and  _525
REMARK  226  A    between atoms: _524  and  _527
REMARK  227  A    between atoms: _529  and  _531
REMARK  228  A    between atoms: _531  and  _532
REMARK  229  A    between atoms: _531  and  _534
REMARK  230  A    between atoms: _534  and  _535
REMARK  231  A    between atoms: _538  and  _540
REMARK  232  A    between atoms: _540  and  _541
REMARK  233  A    between atoms: _540  and  _543
REMARK  234  A    between atoms: _543  and  _544
REMARK  235  A    between atoms: _550  and  _552
REMARK  236  A    between atoms: _552  and  _553
REMARK  237  A    between atoms: _555  and  _557
REMARK  238  A    between atoms: _557  and  _558
REMARK  239  A    between atoms: _557  and  _560
REMARK  240  A    between atoms: _560  and  _561
REMARK  241  A    between atoms: _564  and  _566
REMARK  242  A    between atoms: _566  and  _567
REMARK  243  A    between atoms: _570  and  _572
REMARK  244  A    between atoms: _572  and  _573
REMARK  245  A    between atoms: _572  and  _575
REMARK  246  A    between atoms: _575  and  _576
REMARK  247  A    between atoms: _576  and  _577
REMARK  248  A    between atoms: _577  and  _578
REMARK                            x       y       z     vdW  Elec       q    Type
REMARK                         _______ _______ _______ _____ _____    ______ ____
ROOT
ATOM      1  CA  LEU A   1     -31.282   1.384   1.177  0.00  0.00    +0.133 C 
ENDROOT
BRANCH   1   2
ATOM      2  N   LEU A   1     -31.021   2.762   1.572  0.00  0.00    -0.239 NA
ATOM      3  H   LEU A   1     -30.047   3.127   1.563  0.00  0.00    +0.142 HD
ENDBRANCH   1   2
BRANCH   1   4
ATOM      4  C   LEU A   1     -31.949   0.597   2.305  0.00  0.00    +0.224 C 
ATOM      5  O   LEU A   1     -32.885  -0.172   2.070  0.00  0.00    -0.287 OA
ENDBRANCH   1   4
BRANCH   1   6
ATOM      6  CB  LEU A   1     -29.980   0.700   0.759  0.00  0.00    +0.025 C 
BRANCH   6   7
ATOM      7  CG  LEU A   1     -29.420   1.164  -0.588  0.00  0.00    +0.002 C 
ATOM      8  CD2 LEU A   1     -28.099   0.455  -0.870  0.00  0.00    +0.000 C 
ATOM      9  CD1 LEU A   1     -30.420   0.869  -1.691  0.00  0.00    +0.000 C 
ENDBRANCH   6   7
ENDBRANCH   1   6
TORSDOF 4
REMARK  Name = ../refined-set-2016/4ase/4ase_pocket.pdb
REMARK  248 active torsions:
REMARK  status: ('A' for Active; 'I' for Inactive)
REMARK    1  A    between atoms: _1  and  _3
REMARK    2  A    between atoms: _3  and  _4
REMARK    3  A    between atoms: _3  and  _6
REMARK    4  A    between atoms: _6  and  _7
REMARK    5  A    between atoms: _10  and  _12
REMARK    6  A    between atoms: _12  and  _13
REMARK    7  A    between atoms: _12  and  _15
REMARK    8  A    between atoms: _15  and  _16
REMARK    9  A    between atoms: _16  and  _17
REMARK   10  A    between atoms: _17  and  _18
REMARK   11  A    between atoms: _18  and  _19
REMARK   12  A    between atoms: _24  and  _25
REMARK   13  A    between atoms: _30  and  _32
REMARK   14  A    between atoms: _32  and  _33
REMARK   15  A    between atoms: _32  and  _35
REMARK   16  A    between atoms: _35  and  _36
REMARK   17  A    between atoms: _39  and  _41
REMARK   18  A    between atoms: _41  and  _42
REMARK   19  A    between atoms: _44  and  _46
REMARK   20  A    between atoms: _46  and  _47
REMARK   21  A    between atoms: _46  and  _49
REMARK   22  A    between atoms: _49  and  _50
REMARK   23  A    between atoms: _50  and  _51
REMARK   24  A    between atoms: _51  and  _52
REMARK   25  A    between atoms: _61  and  _63
REMARK   26  A    between atoms: _63  and  _64
REMARK   27  A    between atoms: _63  and  _66
REMARK   28  A    between atoms: _66  and  _67
REMARK   29  A    between atoms: _67  and  _68
REMARK   30  A    between atoms: _73  and  _75
REMARK   31  A    between atoms: _75  and  _76
REMARK   32  A    between atoms: _75  and  _78
REMARK   33  A    between atoms: _81  and  _83
REMARK   34  A    between atoms: _83  and  _84
REMARK   35  A    between atoms: _83  and  _86
REMARK   36  A    between atoms: _86  and  _87
REMARK   37  A    between atoms: _90  and  _92
REMARK   38  A    between atoms: _92  and  _93
REMARK   39  A    between atoms: _92  and  _95
REMARK   40  A    between atoms: _95  and  _96
REMARK   41  A    between atoms: _96  and  _97
REMARK   42  A    between atoms: _100  and  _102
REMARK   43  A    between atoms: _102  and  _103
REMARK   44  A    between atoms: _102  and  _105
REMARK   45  A    between atoms: _105  and  _106
REMARK   46  A    between atoms: _109  and  _111
REMARK   47  A    between atoms: _111  and  _112
REMARK   48  A    between atoms: _111  and  _114
REMARK   49  A    between atoms: _117  and  _119
REMARK   50  A    between atoms: _119  and  _120
REMARK   51  A    between atoms: _123  and  _125
REMARK   52  A    between atoms: _125  and  _126
REMARK   53  A    between atoms: _125  and  _128
REMARK   54  A    between atoms: _131  and  _133
REMARK   55  A    between atoms: _133  and  _134
REMARK   56  A    between atoms: _133  and  _136
REMARK   57  A    between atoms: _136  and  _137
REMARK   58  A    between atoms: _137  and  _138
REMARK   59  A    between atoms: _138  and  _139
REMARK   60  A    between atoms: _139  and  _140
REMARK   61  A    between atoms: _144  and  _146
REMARK   62  A    between atoms: _146  and  _147
REMARK   63  A    between atoms: _146  and  _149
REMARK   64  A    between atoms: _149  and  _150
REMARK   65  A    between atoms: _150  and  _151
REMARK   66  A    between atoms: _153  and  _155
REMARK   67  A    between atoms: _155  and  _156
REMARK   68  A    between atoms: _155  and  _158
REMARK   69  A    between atoms: _158  and  _159
REMARK   70  A    between atoms: _162  and  _164
REMARK   71  A    between atoms: _164  and  _165
REMARK   72  A    between atoms: _164  and  _167
REMARK   73  A    between atoms: _167  and  _168
REMARK   74  A    between atoms: _170  and  _172
REMARK   75  A    between atoms: _172  and  _173
REMARK   76  A    between atoms: _172  and  _175
REMARK   77  A    between atoms: _175  and  _176
REMARK   78  A    between atoms: _176  and  _177
REMARK   79  A    between atoms: _180  and  _182
REMARK   80  A    between atoms: _182  and  _183
REMARK   81  A    between atoms: _182  and  _185
REMARK   82  A    between atoms: _185  and  _186
REMARK   83  A    between atoms: _189  and  _191
REMARK   84  A    between atoms: _191  and  _192
REMARK   85  A    between atoms: _191  and  _194
REMARK   86  A    between atoms: _194  and  _195
REMARK   87  A    between atoms: _198  and  _200
REMARK   88  A    between atoms: _200  and  _201
REMARK   89  A    between atoms: _200  and  _203
REMARK   90  A    between atoms: _203  and  _204
REMARK   91  A    between atoms: _207  and  _209
REMARK   92  A    between atoms: _209  and  _210
REMARK   93  A    between atoms: _209  and  _212
REMARK   94  A    between atoms: _212  and  _213
REMARK   95  A    between atoms: _216  and  _218
REMARK   96  A    between atoms: _218  and  _219
REMARK   97  A    between atoms: _218  and  _221
REMARK   98  A    between atoms: _221  and  _222
REMARK   99  A    between atoms: _225  and  _227
REMARK  100  A    between atoms: _227  and  _228
REMARK  101  A    between atoms: _227  and  _230
REMARK  102  A    between atoms: _233  and  _235
REMARK  103  A    between atoms: _235  and  _236
REMARK  104  A    between atoms: _235  and  _238
REMARK  105  A    between atoms: _241  and  _243
REMARK  106  A    between atoms: _243  and  _244
REMARK  107  A    between atoms: _243  and  _246
REMARK  108  A    between atoms: _246  and  _247
REMARK  109  A    between atoms: _252  and  _254
REMARK  110  A    between atoms: _254  and  _255
REMARK  111  A    between atoms: _254  and  _257
REMARK  112  A    between atoms: _257  and  _258
REMARK  113  A    between atoms: _261  and  _263
REMARK  114  A    between atoms: _263  and  _264
REMARK  115  A    between atoms: _263  and  _266
REMARK  116  A    between atoms: _266  and  _267
REMARK  117  A    between atoms: _270  and  _272
REMARK  118  A    between atoms: _272  and  _273
REMARK  119  A    between atoms: _275  and  _277
REMARK  120  A    between atoms: _277  and  _278
REMARK  121  A    between atoms: _277  and  _280
REMARK  122  A    between atoms: _280  and  _281
REMARK  123  A    between atoms: _281  and  _282
REMARK  124  A    between atoms: _284  and  _286
REMARK  125  A    between atoms: _286  and  _287
REMARK  126  A    between atoms: _286  and  _289
REMARK  127  A    between atoms: _292  and  _294
REMARK  128  A    between atoms: _294  and  _295
REMARK  129  A    between atoms: _294  and  _297
REMARK  130  A    between atoms: _297  and  _298
REMARK  131  A    between atoms: _301  and  _303
REMARK  132  A    between atoms: _303  and  _304
REMARK  133  A    between atoms: _303  and  _306
REMARK  134  A    between atoms: _309  and  _311
REMARK  135  A    between atoms: _311  and  _312
REMARK  136  A    between atoms: _311  and  _314
REMARK  137  A    between atoms: _314  and  _315
REMARK  138  A    between atoms: _315  and  _316
REMARK  139  A    between atoms: _319  and  _321
REMARK  140  A    between atoms: _321  and  _322
REMARK  141  A    between atoms: _321  and  _324
REMARK  142  A    between atoms: _324  and  _325
REMARK  143  A    between atoms: _331  and  _333
REMARK  144  A    between atoms: _333  and  _334
REMARK  145  A    between atoms: _333  and  _336
REMARK  146  A    between atoms: _338  and  _340
REMARK  147  A    between atoms: _340  and  _341
REMARK  148  A    between atoms: _340  and  _343
REMARK  149  A    between atoms: _343  and  _344
REMARK  150  A    between atoms: _344  and  _345
REMARK  151  A    between atoms: _345  and  _346
REMARK  152  A    between atoms: _346  and  _347
REMARK  153  A    between atoms: _351  and  _353
REMARK  154  A    between atoms: _353  and  _354
REMARK  155  A    between atoms: _353  and  _356
REMARK  156  A    between atoms: _356  and  _357
REMARK  157  A    between atoms: _363  and  _365
REMARK  158  A    between atoms: _365  and  _366
REMARK  159  A    between atoms: _368  and  _370
REMARK  160  A    between atoms: _370  and  _371
REMARK  161  A    between atoms: _370  and  _373
REMARK  162  A    between atoms: _373  and  _374
REMARK  163  A    between atoms: _379  and  _381
REMARK  164  A    between atoms: _381  and  _382
REMARK  165  A    between atoms: _384  and  _386
REMARK  166  A    between atoms: _386  and  _387
REMARK  167  A    between atoms: _386  and  _389
REMARK  168  A    between atoms: _389  and  _390
REMARK  169  A    between atoms: _390  and  _391
REMARK  170  A    between atoms: _393  and  _395
REMARK  171  A    between atoms: _395  and  _396
REMARK  172  A    between atoms: _395  and  _398
REMARK  173  A    between atoms: _398  and  _399
REMARK  174  A    between atoms: _402  and  _404
REMARK  175  A    between atoms: _404  and  _405
REMARK  176  A    between atoms: _404  and  _407
REMARK  177  A    between atoms: _409  and  _411
REMARK  178  A    between atoms: _411  and  _412
REMARK  179  A    between atoms: _411  and  _414
REMARK  180  A    between atoms: _414  and  _415
REMARK  181  A    between atoms: _418  and  _420
REMARK  182  A    between atoms: _420  and  _421
REMARK  183  A    between atoms: _420  and  _423
REMARK  184  A    between atoms: _423  and  _424
REMARK  185  A    between atoms: _429  and  _431
REMARK  186  A    between atoms: _431  and  _432
REMARK  187  A    between atoms: _431  and  _434
REMARK  188  A    between atoms: _434  and  _435
REMARK  189  A    between atoms: _435  and  _436
REMARK  190  A    between atoms: _436  and  _437
REMARK  191  A    between atoms: _446  and  _448
REMARK  192  A    between atoms: _448  and  _449
REMARK  193  A    between atoms: _448  and  _451
REMARK  194  A    between atoms: _451  and  _452
REMARK  195  A    between atoms: _452  and  _453
REMARK  196  A    between atoms: _453  and  _454
REMARK  197  A    between atoms: _463  and  _465
REMARK  198  A    between atoms: _465  and  _466
REMARK  199  A    between atoms: _465  and  _468
REMARK  200  A    between atoms: _468  and  _469
REMARK  201  A    between atoms: _474  and  _476
REMARK  202  A    between atoms: _476  and  _477
REMARK  203  A    between atoms: _476  and  _479
REMARK  204  A    between atoms: _479  and  _480
REMARK  205  A    between atoms: _483  and  _485
REMARK  206  A    between atoms: _485  and  _486
REMARK  207  A    between atoms: _485  and  _488
REMARK  208  A    between atoms: _488  and  _489
REMARK  209  A    between atoms: _492  and  _494
REMARK  210  A    between atoms: _494  and  _495
REMARK  211  A    between atoms: _494  and  _497
REMARK  212  A    between atoms: _497  and  _498
REMARK  213  A    between atoms: _500  and  _502
REMARK  214  A    between atoms: _502  and  _503
REMARK  215  A    between atoms: _502  and  _505
REMARK  216  A    between atoms: _505  and  _506
REMARK  217  A    between atoms: _506  and  _507
REMARK  218  A    between atoms: _507  and  _508
REMARK  219  A    between atoms: _508  and  _509
REMARK  220  A    between atoms: _513  and  _515
REMARK  221  A    between atoms: _515  and  _516
REMARK  222  A    between atoms: _515  and  _518
REMARK  223  A    between atoms: _518  and  _519
REMARK  224  A    between atoms: _522  and  _524
REMARK  225  A    between atoms: _524  and  _525
REMARK  226  A    between atoms: _524  and  _527
REMARK  227  A    between atoms: _529  and  _531
REMARK  228  A    between atoms: _531  and  _532
REMARK  229  A    between atoms: _531  and  _534
REMARK  230  A    between atoms: _534  and  _535
REMARK  231  A    between atoms: _538  and  _540
REMARK  232  A    between atoms: _540  and  _541
REMARK  233  A    between atoms: _540  and  _543
REMARK  234  A    between atoms: _543  and  _544
REMARK  235  A    between atoms: _550  and  _552
REMARK  236  A    between atoms: _552  and  _553
REMARK  237  A    between atoms: _555  and  _557
REMARK  238  A    between atoms: _557  and  _558
REMARK  239  A    between atoms: _557  and  _560
REMARK  240  A    between atoms: _560  and  _561
REMARK  241  A    between atoms: _564  and  _566
REMARK  242  A    between atoms: _566  and  _567
REMARK  243  A    between atoms: _570  and  _572
REMARK  244  A    between atoms: _572  and  _573
REMARK  245  A    between atoms: _572  and  _575
REMARK  246  A    between atoms: _575  and  _576
REMARK  247  A    between atoms: _576  and  _577
REMARK  248  A    between atoms: _577  and  _578
REMARK                            x       y       z     vdW  Elec       q    Type
REMARK                         _______ _______ _______ _____ _____    ______ ____
ROOT
ATOM      1  CA  HIS A   3     -26.356  -4.863   0.101  0.00  0.00    +0.155 C 
ENDROOT
BRANCH   1   2
ATOM      2  C   HIS A   3     -25.627  -6.200  -0.080  0.00  0.00    +0.241 C 
ATOM      3  N   ARG A   4     -24.973  -6.684   0.969  0.00  0.00    -0.298 N 
ATOM      4  H   ARG A   4     -24.919  -6.114   1.837  0.00  0.00    +0.150 HD
ATOM      5  O   HIS A   3     -25.652  -6.773  -1.165  0.00  0.00    -0.273 OA
BRANCH   3   6
ATOM      6  CA  ARG A   4     -24.324  -8.000   0.939  0.00  0.00    +0.137 C 
BRANCH   6   7
ATOM      7  C   ARG A   4     -22.990  -8.065   0.187  0.00  0.00    +0.227 C 
ATOM      8  O   ARG A   4     -22.349  -9.113   0.163  0.00  0.00    -0.286 OA
ENDBRANCH   6   7
BRANCH   6   9
ATOM      9  CB  ARG A   4     -25.262  -9.057   0.344  0.00  0.00    +0.031 C 
BRANCH   9  10
ATOM     10  CG  ARG A   4     -26.559  -9.274   1.106  0.00  0.00    +0.045 C 
BRANCH  10  11
ATOM     11  CD  ARG A   4     -27.326 -10.446   0.513  0.00  0.00    +0.174 C 
BRANCH  11  12
ATOM     12  NE  ARG A   4     -28.695 -10.541   1.013  0.00  0.00    -0.265 N 
ATOM     13  HE  ARG A   4     -28.869 -11.137   1.848  0.00  0.00    +0.259 HD
ATOM     14  CZ  ARG A   4     -29.732  -9.913   0.467  0.00  0.00    +0.342 C 
ATOM     15  NH2 ARG A   4     -30.946 -10.057   0.982  0.00  0.00    -0.292 N 
ATOM     16 HH21 ARG A   4     -31.089 -10.663   1.815  0.00  0.00    +0.255 HD
ATOM     17 HH22 ARG A   4     -31.755  -9.564   0.552  0.00  0.00    +0.255 HD
ATOM     18  NH1 ARG A   4     -29.553  -9.134  -0.593  0.00  0.00    -0.292 N 
ATOM     19 HH11 ARG A   4     -28.602  -9.015  -0.996  0.00  0.00    +0.255 HD
ATOM     20 HH12 ARG A   4     -30.364  -8.643  -1.020  0.00  0.00    +0.255 HD
ENDBRANCH  11  12
ENDBRANCH  10  11
ENDBRANCH   9  10
ENDBRANCH   6   9
ENDBRANCH   3   6
ENDBRANCH   1   2
BRANCH   1  22
ATOM     21  C   ILE A   2     -28.487  -5.308   1.139  0.00  0.00    +0.241 C 
ATOM     22  N   HIS A   3     -27.259  -4.817   1.236  0.00  0.00    -0.297 N 
ATOM     23  H   HIS A   3     -26.941  -4.396   2.132  0.00  0.00    +0.150 HD
ATOM     24  O   ILE A   2     -28.859  -5.995   0.183  0.00  0.00    -0.273 OA
BRANCH  21  25
ATOM     25  CA  ILE A   2     -29.437  -4.985   2.282  0.00  0.00    +0.148 C 
BRANCH  25  28
ATOM     26  C   CYS A   1     -31.555  -3.838   2.004  0.00  0.00    +0.239 C 
ATOM     27  O   CYS A   1     -31.269  -2.984   2.844  0.00  0.00    -0.274 OA
ATOM     28  N   ILE A   2     -30.791  -4.895   1.759  0.00  0.00    -0.297 N 
ATOM     29  H   ILE A   2     -31.168  -5.674   1.182  0.00  0.00    +0.150 HD
BRANCH  26  30
ATOM     30  CA  CYS A   1     -32.842  -3.736   1.197  0.00  0.00    +0.156 C 
BRANCH  30  31
ATOM     31  CB  CYS A   1     -32.563  -3.024  -0.127  0.00  0.00    +0.095 C 
ATOM     32  SG  CYS A   1     -33.974  -3.014  -1.254  0.00  0.00    -0.080 S 
ENDBRANCH  30  31
BRANCH  30  33
ATOM     33  N   CYS A   1     -33.867  -3.024   1.947  0.00  0.00    -0.237 NA
ATOM     34  H   CYS A   1     -33.716  -2.025   2.194  0.00  0.00    +0.142 HD
ENDBRANCH  30  33
ENDBRANCH  26  30
ENDBRANCH  25  28
BRANCH  25  35
ATOM     35  CB  ILE A   2     -29.303  -6.081   3.360  0.00  0.00    +0.027 C 
ATOM     36  CG2 ILE A   2     -30.218  -5.773   4.535  0.00  0.00    +0.002 C 
BRANCH  35  37
ATOM     37  CG1 ILE A   2     -29.626  -7.445   2.758  0.00  0.00    +0.002 C 
ATOM     38  CD1 ILE A   2     -29.447  -8.591   3.740  0.00  0.00    +0.000 C 
ENDBRANCH  35  37
ENDBRANCH  25  35
ENDBRANCH  21  25
ENDBRANCH   1  22
BRANCH   1  39
ATOM     39  CB  HIS A   3     -25.340  -3.729   0.203  0.00  0.00    +0.076 C 
BRANCH  39  40
ATOM     40  CG  HIS A   3     -24.598  -3.486  -1.069  0.00  0.00    +0.082 A 
ATOM     41  ND1 HIS A   3     -23.650  -4.361  -1.553  0.00  0.00    -0.227 NA
ATOM     42  CE1 HIS A   3     -23.171  -3.897  -2.694  0.00  0.00    +0.199 A 
ATOM     43  NE2 HIS A   3     -23.775  -2.754  -2.965  0.00  0.00    -0.221 NA
ATOM     44  CD2 HIS A   3     -24.673  -2.475  -1.965  0.00  0.00    +0.115 A 
ENDBRANCH  39  40
ENDBRANCH   1  39
TORSDOF 17
REMARK  Name = ../refined-set-2016/4ase/4ase_pocket.pdb
REMARK  248 active torsions:
REMARK  status: ('A' for Active; 'I' for Inactive)
REMARK    1  A    between atoms: _1  and  _3
REMARK    2  A    between atoms: _3  and  _4
REMARK    3  A    between atoms: _3  and  _6
REMARK    4  A    between atoms: _6  and  _7
REMARK    5  A    between atoms: _10  and  _12
REMARK    6  A    between atoms: _12  and  _13
REMARK    7  A    between atoms: _12  and  _15
REMARK    8  A    between atoms: _15  and  _16
REMARK    9  A    between atoms: _16  and  _17
REMARK   10  A    between atoms: _17  and  _18
REMARK   11  A    between atoms: _18  and  _19
REMARK   12  A    between atoms: _24  and  _25
REMARK   13  A    between atoms: _30  and  _32
REMARK   14  A    between atoms: _32  and  _33
REMARK   15  A    between atoms: _32  and  _35
REMARK   16  A    between atoms: _35  and  _36
REMARK   17  A    between atoms: _39  and  _41
REMARK   18  A    between atoms: _41  and  _42
REMARK   19  A    between atoms: _44  and  _46
REMARK   20  A    between atoms: _46  and  _47
REMARK   21  A    between atoms: _46  and  _49
REMARK   22  A    between atoms: _49  and  _50
REMARK   23  A    between atoms: _50  and  _51
REMARK   24  A    between atoms: _51  and  _52
REMARK   25  A    between atoms: _61  and  _63
REMARK   26  A    between atoms: _63  and  _64
REMARK   27  A    between atoms: _63  and  _66
REMARK   28  A    between atoms: _66  and  _67
REMARK   29  A    between atoms: _67  and  _68
REMARK   30  A    between atoms: _73  and  _75
REMARK   31  A    between atoms: _75  and  _76
REMARK   32  A    between atoms: _75  and  _78
REMARK   33  A    between atoms: _81  and  _83
REMARK   34  A    between atoms: _83  and  _84
REMARK   35  A    between atoms: _83  and  _86
REMARK   36  A    between atoms: _86  and  _87
REMARK   37  A    between atoms: _90  and  _92
REMARK   38  A    between atoms: _92  and  _93
REMARK   39  A    between atoms: _92  and  _95
REMARK   40  A    between atoms: _95  and  _96
REMARK   41  A    between atoms: _96  and  _97
REMARK   42  A    between atoms: _100  and  _102
REMARK   43  A    between atoms: _102  and  _103
REMARK   44  A    between atoms: _102  and  _105
REMARK   45  A    between atoms: _105  and  _106
REMARK   46  A    between atoms: _109  and  _111
REMARK   47  A    between atoms: _111  and  _112
REMARK   48  A    between atoms: _111  and  _114
REMARK   49  A    between atoms: _117  and  _119
REMARK   50  A    between atoms: _119  and  _120
REMARK   51  A    between atoms: _123  and  _125
REMARK   52  A    between atoms: _125  and  _126
REMARK   53  A    between atoms: _125  and  _128
REMARK   54  A    between atoms: _131  and  _133
REMARK   55  A    between atoms: _133  and  _134
REMARK   56  A    between atoms: _133  and  _136
REMARK   57  A    between atoms: _136  and  _137
REMARK   58  A    between atoms: _137  and  _138
REMARK   59  A    between atoms: _138  and  _139
REMARK   60  A    between atoms: _139  and  _140
REMARK   61  A    between atoms: _144  and  _146
REMARK   62  A    between atoms: _146  and  _147
REMARK   63  A    between atoms: _146  and  _149
REMARK   64  A    between atoms: _149  and  _150
REMARK   65  A    between atoms: _150  and  _151
REMARK   66  A    between atoms: _153  and  _155
REMARK   67  A    between atoms: _155  and  _156
REMARK   68  A    between atoms: _155  and  _158
REMARK   69  A    between atoms: _158  and  _159
REMARK   70  A    between atoms: _162  and  _164
REMARK   71  A    between atoms: _164  and  _165
REMARK   72  A    between atoms: _164  and  _167
REMARK   73  A    between atoms: _167  and  _168
REMARK   74  A    between atoms: _170  and  _172
REMARK   75  A    between atoms: _172  and  _173
REMARK   76  A    between atoms: _172  and  _175
REMARK   77  A    between atoms: _175  and  _176
REMARK   78  A    between atoms: _176  and  _177
REMARK   79  A    between atoms: _180  and  _182
REMARK   80  A    between atoms: _182  and  _183
REMARK   81  A    between atoms: _182  and  _185
REMARK   82  A    between atoms: _185  and  _186
REMARK   83  A    between atoms: _189  and  _191
REMARK   84  A    between atoms: _191  and  _192
REMARK   85  A    between atoms: _191  and  _194
REMARK   86  A    between atoms: _194  and  _195
REMARK   87  A    between atoms: _198  and  _200
REMARK   88  A    between atoms: _200  and  _201
REMARK   89  A    between atoms: _200  and  _203
REMARK   90  A    between atoms: _203  and  _204
REMARK   91  A    between atoms: _207  and  _209
REMARK   92  A    between atoms: _209  and  _210
REMARK   93  A    between atoms: _209  and  _212
REMARK   94  A    between atoms: _212  and  _213
REMARK   95  A    between atoms: _216  and  _218
REMARK   96  A    between atoms: _218  and  _219
REMARK   97  A    between atoms: _218  and  _221
REMARK   98  A    between atoms: _221  and  _222
REMARK   99  A    between atoms: _225  and  _227
REMARK  100  A    between atoms: _227  and  _228
REMARK  101  A    between atoms: _227  and  _230
REMARK  102  A    between atoms: _233  and  _235
REMARK  103  A    between atoms: _235  and  _236
REMARK  104  A    between atoms: _235  and  _238
REMARK  105  A    between atoms: _241  and  _243
REMARK  106  A    between atoms: _243  and  _244
REMARK  107  A    between atoms: _243  and  _246
REMARK  108  A    between atoms: _246  and  _247
REMARK  109  A    between atoms: _252  and  _254
REMARK  110  A    between atoms: _254  and  _255
REMARK  111  A    between atoms: _254  and  _257
REMARK  112  A    between atoms: _257  and  _258
REMARK  113  A    between atoms: _261  and  _263
REMARK  114  A    between atoms: _263  and  _264
REMARK  115  A    between atoms: _263  and  _266
REMARK  116  A    between atoms: _266  and  _267
REMARK  117  A    between atoms: _270  and  _272
REMARK  118  A    between atoms: _272  and  _273
REMARK  119  A    between atoms: _275  and  _277
REMARK  120  A    between atoms: _277  and  _278
REMARK  121  A    between atoms: _277  and  _280
REMARK  122  A    between atoms: _280  and  _281
REMARK  123  A    between atoms: _281  and  _282
REMARK  124  A    between atoms: _284  and  _286
REMARK  125  A    between atoms: _286  and  _287
REMARK  126  A    between atoms: _286  and  _289
REMARK  127  A    between atoms: _292  and  _294
REMARK  128  A    between atoms: _294  and  _295
REMARK  129  A    between atoms: _294  and  _297
REMARK  130  A    between atoms: _297  and  _298
REMARK  131  A    between atoms: _301  and  _303
REMARK  132  A    between atoms: _303  and  _304
REMARK  133  A    between atoms: _303  and  _306
REMARK  134  A    between atoms: _309  and  _311
REMARK  135  A    between atoms: _311  and  _312
REMARK  136  A    between atoms: _311  and  _314
REMARK  137  A    between atoms: _314  and  _315
REMARK  138  A    between atoms: _315  and  _316
REMARK  139  A    between atoms: _319  and  _321
REMARK  140  A    between atoms: _321  and  _322
REMARK  141  A    between atoms: _321  and  _324
REMARK  142  A    between atoms: _324  and  _325
REMARK  143  A    between atoms: _331  and  _333
REMARK  144  A    between atoms: _333  and  _334
REMARK  145  A    between atoms: _333  and  _336
REMARK  146  A    between atoms: _338  and  _340
REMARK  147  A    between atoms: _340  and  _341
REMARK  148  A    between atoms: _340  and  _343
REMARK  149  A    between atoms: _343  and  _344
REMARK  150  A    between atoms: _344  and  _345
REMARK  151  A    between atoms: _345  and  _346
REMARK  152  A    between atoms: _346  and  _347
REMARK  153  A    between atoms: _351  and  _353
REMARK  154  A    between atoms: _353  and  _354
REMARK  155  A    between atoms: _353  and  _356
REMARK  156  A    between atoms: _356  and  _357
REMARK  157  A    between atoms: _363  and  _365
REMARK  158  A    between atoms: _365  and  _366
REMARK  159  A    between atoms: _368  and  _370
REMARK  160  A    between atoms: _370  and  _371
REMARK  161  A    between atoms: _370  and  _373
REMARK  162  A    between atoms: _373  and  _374
REMARK  163  A    between atoms: _379  and  _381
REMARK  164  A    between atoms: _381  and  _382
REMARK  165  A    between atoms: _384  and  _386
REMARK  166  A    between atoms: _386  and  _387
REMARK  167  A    between atoms: _386  and  _389
REMARK  168  A    between atoms: _389  and  _390
REMARK  169  A    between atoms: _390  and  _391
REMARK  170  A    between atoms: _393  and  _395
REMARK  171  A    between atoms: _395  and  _396
REMARK  172  A    between atoms: _395  and  _398
REMARK  173  A    between atoms: _398  and  _399
REMARK  174  A    between atoms: _402  and  _404
REMARK  175  A    between atoms: _404  and  _405
REMARK  176  A    between atoms: _404  and  _407
REMARK  177  A    between atoms: _409  and  _411
REMARK  178  A    between atoms: _411  and  _412
REMARK  179  A    between atoms: _411  and  _414
REMARK  180  A    between atoms: _414  and  _415
REMARK  181  A    between atoms: _418  and  _420
REMARK  182  A    between atoms: _420  and  _421
REMARK  183  A    between atoms: _420  and  _423
REMARK  184  A    between atoms: _423  and  _424
REMARK  185  A    between atoms: _429  and  _431
REMARK  186  A    between atoms: _431  and  _432
REMARK  187  A    between atoms: _431  and  _434
REMARK  188  A    between atoms: _434  and  _435
REMARK  189  A    between atoms: _435  and  _436
REMARK  190  A    between atoms: _436  and  _437
REMARK  191  A    between atoms: _446  and  _448
REMARK  192  A    between atoms: _448  and  _449
REMARK  193  A    between atoms: _448  and  _451
REMARK  194  A    between atoms: _451  and  _452
REMARK  195  A    between atoms: _452  and  _453
REMARK  196  A    between atoms: _453  and  _454
REMARK  197  A    between atoms: _463  and  _465
REMARK  198  A    between atoms: _465  and  _466
REMARK  199  A    between atoms: _465  and  _468
REMARK  200  A    between atoms: _468  and  _469
REMARK  201  A    between atoms: _474  and  _476
REMARK  202  A    between atoms: _476  and  _477
REMARK  203  A    between atoms: _476  and  _479
REMARK  204  A    between atoms: _479  and  _480
REMARK  205  A    between atoms: _483  and  _485
REMARK  206  A    between atoms: _485  and  _486
REMARK  207  A    between atoms: _485  and  _488
REMARK  208  A    between atoms: _488  and  _489
REMARK  209  A    between atoms: _492  and  _494
REMARK  210  A    between atoms: _494  and  _495
REMARK  211  A    between atoms: _494  and  _497
REMARK  212  A    between atoms: _497  and  _498
REMARK  213  A    between atoms: _500  and  _502
REMARK  214  A    between atoms: _502  and  _503
REMARK  215  A    between atoms: _502  and  _505
REMARK  216  A    between atoms: _505  and  _506
REMARK  217  A    between atoms: _506  and  _507
REMARK  218  A    between atoms: _507  and  _508
REMARK  219  A    between atoms: _508  and  _509
REMARK  220  A    between atoms: _513  and  _515
REMARK  221  A    between atoms: _515  and  _516
REMARK  222  A    between atoms: _515  and  _518
REMARK  223  A    between atoms: _518  and  _519
REMARK  224  A    between atoms: _522  and  _524
REMARK  225  A    between atoms: _524  and  _525
REMARK  226  A    between atoms: _524  and  _527
REMARK  227  A    between atoms: _529  and  _531
REMARK  228  A    between atoms: _531  and  _532
REMARK  229  A    between atoms: _531  and  _534
REMARK  230  A    between atoms: _534  and  _535
REMARK  231  A    between atoms: _538  and  _540
REMARK  232  A    between atoms: _540  and  _541
REMARK  233  A    between atoms: _540  and  _543
REMARK  234  A    between atoms: _543  and  _544
REMARK  235  A    between atoms: _550  and  _552
REMARK  236  A    between atoms: _552  and  _553
REMARK  237  A    between atoms: _555  and  _557
REMARK  238  A    between atoms: _557  and  _558
REMARK  239  A    between atoms: _557  and  _560
REMARK  240  A    between atoms: _560  and  _561
REMARK  241  A    between atoms: _564  and  _566
REMARK  242  A    between atoms: _566  and  _567
REMARK  243  A    between atoms: _570  and  _572
REMARK  244  A    between atoms: _572  and  _573
REMARK  245  A    between atoms: _572  and  _575
REMARK  246  A    between atoms: _575  and  _576
REMARK  247  A    between atoms: _576  and  _577
REMARK  248  A    between atoms: _577  and  _578
REMARK                            x       y       z     vdW  Elec       q    Type
REMARK                         _______ _______ _______ _____ _____    ______ ____
ROOT
ATOM      1  CA  ARG A   1     -15.060  -1.627  -5.552  0.00  0.00    +0.145 C 
ENDROOT
BRANCH   1   2
ATOM      2  C   ARG A   1     -16.507  -1.533  -6.048  0.00  0.00    +0.238 C 
ATOM      3  N   ASN A   2     -17.445  -1.420  -5.114  0.00  0.00    -0.298 N 
ATOM      4  H   ASN A   2     -17.163  -1.432  -4.113  0.00  0.00    +0.150 HD
ATOM      5  O   ARG A   1     -16.765  -1.570  -7.254  0.00  0.00    -0.274 OA
BRANCH   3   6
ATOM      6  CA  ASN A   2     -18.861  -1.280  -5.448  0.00  0.00    +0.146 C 
BRANCH   6   7
ATOM      7  C   ASN A   2     -19.383   0.129  -5.127  0.00  0.00    +0.227 C 
ATOM      8  O   ASN A   2     -20.593   0.354  -5.012  0.00  0.00    -0.286 OA
ENDBRANCH   6   7
BRANCH   6   9
ATOM      9  CB  ASN A   2     -19.678  -2.340  -4.698  0.00  0.00    +0.112 C 
BRANCH   9  10
ATOM     10  CG  ASN A   2     -19.782  -3.650  -5.471  0.00  0.00    +0.222 C 
ATOM     11  ND2 ASN A   2     -19.884  -4.763  -4.748  0.00  0.00    -0.329 N 
ATOM     12 HD21 ASN A   2     -19.886  -4.710  -3.709  0.00  0.00    +0.145 HD
ATOM     13 HD22 ASN A   2     -19.962  -5.686  -5.222  0.00  0.00    +0.145 HD
ATOM     14  OD1 ASN A   2     -19.775  -3.657  -6.704  0.00  0.00    -0.275 OA
ENDBRANCH   9  10
ENDBRANCH   6   9
ENDBRANCH   3   6
ENDBRANCH   1   2
BRANCH   1  15
ATOM     15  N   ARG A   1     -14.945  -1.209  -4.154  0.00  0.00    -0.238 NA
ATOM     16  H   ARG A   1     -14.711  -1.921  -3.433  0.00  0.00    +0.142 HD
ENDBRANCH   1  15
BRANCH   1  17
ATOM     17  CB  ARG A   1     -14.562  -3.070  -5.712  0.00  0.00    +0.030 C 
BRANCH  17  18
ATOM     18  CG  ARG A   1     -15.418  -4.089  -4.977  0.00  0.00    +0.045 C 
BRANCH  18  19
ATOM     19  CD  ARG A   1     -14.837  -5.501  -5.056  0.00  0.00    +0.174 C 
BRANCH  19  20
ATOM     20  NE  ARG A   1     -15.506  -6.383  -4.103  0.00  0.00    -0.265 N 
ATOM     21  CZ  ARG A   1     -15.091  -6.589  -2.857  0.00  0.00    +0.342 C 
ATOM     22  NH2 ARG A   1     -15.791  -7.371  -2.048  0.00  0.00    -0.292 N 
ATOM     23 HH21 ARG A   1     -15.468  -7.533  -1.073  0.00  0.00    +0.255 HD
ATOM     24 HH22 ARG A   1     -16.664  -7.823  -2.388  0.00  0.00    +0.255 HD
ATOM     25  NH1 ARG A   1     -13.994  -5.987  -2.405  0.00  0.00    -0.292 N 
ATOM     26 HH11 ARG A   1     -13.675  -6.152  -1.429  0.00  0.00    +0.255 HD
ATOM     27 HH12 ARG A   1     -13.456  -5.351  -3.028  0.00  0.00    +0.255 HD
ATOM     28  HE  ARG A   1     -16.362  -6.882  -4.420  0.00  0.00    +0.259 HD
ENDBRANCH  19  20
ENDBRANCH  18  19
ENDBRANCH  17  18
ENDBRANCH   1  17
TORSDOF 10
REMARK  Name = ../refined-set-2016/4ase/4ase_pocket.pdb
REMARK  248 active torsions:
REMARK  status: ('A' for Active; 'I' for Inactive)
REMARK    1  A    between atoms: _1  and  _3
REMARK    2  A    between atoms: _3  and  _4
REMARK    3  A    between atoms: _3  and  _6
REMARK    4  A    between atoms: _6  and  _7
REMARK    5  A    between atoms: _10  and  _12
REMARK    6  A    between atoms: _12  and  _13
REMARK    7  A    between atoms: _12  and  _15
REMARK    8  A    between atoms: _15  and  _16
REMARK    9  A    between atoms: _16  and  _17
REMARK   10  A    between atoms: _17  and  _18
REMARK   11  A    between atoms: _18  and  _19
REMARK   12  A    between atoms: _24  and  _25
REMARK   13  A    between atoms: _30  and  _32
REMARK   14  A    between atoms: _32  and  _33
REMARK   15  A    between atoms: _32  and  _35
REMARK   16  A    between atoms: _35  and  _36
REMARK   17  A    between atoms: _39  and  _41
REMARK   18  A    between atoms: _41  and  _42
REMARK   19  A    between atoms: _44  and  _46
REMARK   20  A    between atoms: _46  and  _47
REMARK   21  A    between atoms: _46  and  _49
REMARK   22  A    between atoms: _49  and  _50
REMARK   23  A    between atoms: _50  and  _51
REMARK   24  A    between atoms: _51  and  _52
REMARK   25  A    between atoms: _61  and  _63
REMARK   26  A    between atoms: _63  and  _64
REMARK   27  A    between atoms: _63  and  _66
REMARK   28  A    between atoms: _66  and  _67
REMARK   29  A    between atoms: _67  and  _68
REMARK   30  A    between atoms: _73  and  _75
REMARK   31  A    between atoms: _75  and  _76
REMARK   32  A    between atoms: _75  and  _78
REMARK   33  A    between atoms: _81  and  _83
REMARK   34  A    between atoms: _83  and  _84
REMARK   35  A    between atoms: _83  and  _86
REMARK   36  A    between atoms: _86  and  _87
REMARK   37  A    between atoms: _90  and  _92
REMARK   38  A    between atoms: _92  and  _93
REMARK   39  A    between atoms: _92  and  _95
REMARK   40  A    between atoms: _95  and  _96
REMARK   41  A    between atoms: _96  and  _97
REMARK   42  A    between atoms: _100  and  _102
REMARK   43  A    between atoms: _102  and  _103
REMARK   44  A    between atoms: _102  and  _105
REMARK   45  A    between atoms: _105  and  _106
REMARK   46  A    between atoms: _109  and  _111
REMARK   47  A    between atoms: _111  and  _112
REMARK   48  A    between atoms: _111  and  _114
REMARK   49  A    between atoms: _117  and  _119
REMARK   50  A    between atoms: _119  and  _120
REMARK   51  A    between atoms: _123  and  _125
REMARK   52  A    between atoms: _125  and  _126
REMARK   53  A    between atoms: _125  and  _128
REMARK   54  A    between atoms: _131  and  _133
REMARK   55  A    between atoms: _133  and  _134
REMARK   56  A    between atoms: _133  and  _136
REMARK   57  A    between atoms: _136  and  _137
REMARK   58  A    between atoms: _137  and  _138
REMARK   59  A    between atoms: _138  and  _139
REMARK   60  A    between atoms: _139  and  _140
REMARK   61  A    between atoms: _144  and  _146
REMARK   62  A    between atoms: _146  and  _147
REMARK   63  A    between atoms: _146  and  _149
REMARK   64  A    between atoms: _149  and  _150
REMARK   65  A    between atoms: _150  and  _151
REMARK   66  A    between atoms: _153  and  _155
REMARK   67  A    between atoms: _155  and  _156
REMARK   68  A    between atoms: _155  and  _158
REMARK   69  A    between atoms: _158  and  _159
REMARK   70  A    between atoms: _162  and  _164
REMARK   71  A    between atoms: _164  and  _165
REMARK   72  A    between atoms: _164  and  _167
REMARK   73  A    between atoms: _167  and  _168
REMARK   74  A    between atoms: _170  and  _172
REMARK   75  A    between atoms: _172  and  _173
REMARK   76  A    between atoms: _172  and  _175
REMARK   77  A    between atoms: _175  and  _176
REMARK   78  A    between atoms: _176  and  _177
REMARK   79  A    between atoms: _180  and  _182
REMARK   80  A    between atoms: _182  and  _183
REMARK   81  A    between atoms: _182  and  _185
REMARK   82  A    between atoms: _185  and  _186
REMARK   83  A    between atoms: _189  and  _191
REMARK   84  A    between atoms: _191  and  _192
REMARK   85  A    between atoms: _191  and  _194
REMARK   86  A    between atoms: _194  and  _195
REMARK   87  A    between atoms: _198  and  _200
REMARK   88  A    between atoms: _200  and  _201
REMARK   89  A    between atoms: _200  and  _203
REMARK   90  A    between atoms: _203  and  _204
REMARK   91  A    between atoms: _207  and  _209
REMARK   92  A    between atoms: _209  and  _210
REMARK   93  A    between atoms: _209  and  _212
REMARK   94  A    between atoms: _212  and  _213
REMARK   95  A    between atoms: _216  and  _218
REMARK   96  A    between atoms: _218  and  _219
REMARK   97  A    between atoms: _218  and  _221
REMARK   98  A    between atoms: _221  and  _222
REMARK   99  A    between atoms: _225  and  _227
REMARK  100  A    between atoms: _227  and  _228
REMARK  101  A    between atoms: _227  and  _230
REMARK  102  A    between atoms: _233  and  _235
REMARK  103  A    between atoms: _235  and  _236
REMARK  104  A    between atoms: _235  and  _238
REMARK  105  A    between atoms: _241  and  _243
REMARK  106  A    between atoms: _243  and  _244
REMARK  107  A    between atoms: _243  and  _246
REMARK  108  A    between atoms: _246  and  _247
REMARK  109  A    between atoms: _252  and  _254
REMARK  110  A    between atoms: _254  and  _255
REMARK  111  A    between atoms: _254  and  _257
REMARK  112  A    between atoms: _257  and  _258
REMARK  113  A    between atoms: _261  and  _263
REMARK  114  A    between atoms: _263  and  _264
REMARK  115  A    between atoms: _263  and  _266
REMARK  116  A    between atoms: _266  and  _267
REMARK  117  A    between atoms: _270  and  _272
REMARK  118  A    between atoms: _272  and  _273
REMARK  119  A    between atoms: _275  and  _277
REMARK  120  A    between atoms: _277  and  _278
REMARK  121  A    between atoms: _277  and  _280
REMARK  122  A    between atoms: _280  and  _281
REMARK  123  A    between atoms: _281  and  _282
REMARK  124  A    between atoms: _284  and  _286
REMARK  125  A    between atoms: _286  and  _287
REMARK  126  A    between atoms: _286  and  _289
REMARK  127  A    between atoms: _292  and  _294
REMARK  128  A    between atoms: _294  and  _295
REMARK  129  A    between atoms: _294  and  _297
REMARK  130  A    between atoms: _297  and  _298
REMARK  131  A    between atoms: _301  and  _303
REMARK  132  A    between atoms: _303  and  _304
REMARK  133  A    between atoms: _303  and  _306
REMARK  134  A    between atoms: _309  and  _311
REMARK  135  A    between atoms: _311  and  _312
REMARK  136  A    between atoms: _311  and  _314
REMARK  137  A    between atoms: _314  and  _315
REMARK  138  A    between atoms: _315  and  _316
REMARK  139  A    between atoms: _319  and  _321
REMARK  140  A    between atoms: _321  and  _322
REMARK  141  A    between atoms: _321  and  _324
REMARK  142  A    between atoms: _324  and  _325
REMARK  143  A    between atoms: _331  and  _333
REMARK  144  A    between atoms: _333  and  _334
REMARK  145  A    between atoms: _333  and  _336
REMARK  146  A    between atoms: _338  and  _340
REMARK  147  A    between atoms: _340  and  _341
REMARK  148  A    between atoms: _340  and  _343
REMARK  149  A    between atoms: _343  and  _344
REMARK  150  A    between atoms: _344  and  _345
REMARK  151  A    between atoms: _345  and  _346
REMARK  152  A    between atoms: _346  and  _347
REMARK  153  A    between atoms: _351  and  _353
REMARK  154  A    between atoms: _353  and  _354
REMARK  155  A    between atoms: _353  and  _356
REMARK  156  A    between atoms: _356  and  _357
REMARK  157  A    between atoms: _363  and  _365
REMARK  158  A    between atoms: _365  and  _366
REMARK  159  A    between atoms: _368  and  _370
REMARK  160  A    between atoms: _370  and  _371
REMARK  161  A    between atoms: _370  and  _373
REMARK  162  A    between atoms: _373  and  _374
REMARK  163  A    between atoms: _379  and  _381
REMARK  164  A    between atoms: _381  and  _382
REMARK  165  A    between atoms: _384  and  _386
REMARK  166  A    between atoms: _386  and  _387
REMARK  167  A    between atoms: _386  and  _389
REMARK  168  A    between atoms: _389  and  _390
REMARK  169  A    between atoms: _390  and  _391
REMARK  170  A    between atoms: _393  and  _395
REMARK  171  A    between atoms: _395  and  _396
REMARK  172  A    between atoms: _395  and  _398
REMARK  173  A    between atoms: _398  and  _399
REMARK  174  A    between atoms: _402  and  _404
REMARK  175  A    between atoms: _404  and  _405
REMARK  176  A    between atoms: _404  and  _407
REMARK  177  A    between atoms: _409  and  _411
REMARK  178  A    between atoms: _411  and  _412
REMARK  179  A    between atoms: _411  and  _414
REMARK  180  A    between atoms: _414  and  _415
REMARK  181  A    between atoms: _418  and  _420
REMARK  182  A    between atoms: _420  and  _421
REMARK  183  A    between atoms: _420  and  _423
REMARK  184  A    between atoms: _423  and  _424
REMARK  185  A    between atoms: _429  and  _431
REMARK  186  A    between atoms: _431  and  _432
REMARK  187  A    between atoms: _431  and  _434
REMARK  188  A    between atoms: _434  and  _435
REMARK  189  A    between atoms: _435  and  _436
REMARK  190  A    between atoms: _436  and  _437
REMARK  191  A    between atoms: _446  and  _448
REMARK  192  A    between atoms: _448  and  _449
REMARK  193  A    between atoms: _448  and  _451
REMARK  194  A    between atoms: _451  and  _452
REMARK  195  A    between atoms: _452  and  _453
REMARK  196  A    between atoms: _453  and  _454
REMARK  197  A    between atoms: _463  and  _465
REMARK  198  A    between atoms: _465  and  _466
REMARK  199  A    between atoms: _465  and  _468
REMARK  200  A    between atoms: _468  and  _469
REMARK  201  A    between atoms: _474  and  _476
REMARK  202  A    between atoms: _476  and  _477
REMARK  203  A    between atoms: _476  and  _479
REMARK  204  A    between atoms: _479  and  _480
REMARK  205  A    between atoms: _483  and  _485
REMARK  206  A    between atoms: _485  and  _486
REMARK  207  A    between atoms: _485  and  _488
REMARK  208  A    between atoms: _488  and  _489
REMARK  209  A    between atoms: _492  and  _494
REMARK  210  A    between atoms: _494  and  _495
REMARK  211  A    between atoms: _494  and  _497
REMARK  212  A    between atoms: _497  and  _498
REMARK  213  A    between atoms: _500  and  _502
REMARK  214  A    between atoms: _502  and  _503
REMARK  215  A    between atoms: _502  and  _505
REMARK  216  A    between atoms: _505  and  _506
REMARK  217  A    between atoms: _506  and  _507
REMARK  218  A    between atoms: _507  and  _508
REMARK  219  A    between atoms: _508  and  _509
REMARK  220  A    between atoms: _513  and  _515
REMARK  221  A    between atoms: _515  and  _516
REMARK  222  A    between atoms: _515  and  _518
REMARK  223  A    between atoms: _518  and  _519
REMARK  224  A    between atoms: _522  and  _524
REMARK  225  A    between atoms: _524  and  _525
REMARK  226  A    between atoms: _524  and  _527
REMARK  227  A    between atoms: _529  and  _531
REMARK  228  A    between atoms: _531  and  _532
REMARK  229  A    between atoms: _531  and  _534
REMARK  230  A    between atoms: _534  and  _535
REMARK  231  A    between atoms: _538  and  _540
REMARK  232  A    between atoms: _540  and  _541
REMARK  233  A    between atoms: _540  and  _543
REMARK  234  A    between atoms: _543  and  _544
REMARK  235  A    between atoms: _550  and  _552
REMARK  236  A    between atoms: _552  and  _553
REMARK  237  A    between atoms: _555  and  _557
REMARK  238  A    between atoms: _557  and  _558
REMARK  239  A    between atoms: _557  and  _560
REMARK  240  A    between atoms: _560  and  _561
REMARK  241  A    between atoms: _564  and  _566
REMARK  242  A    between atoms: _566  and  _567
REMARK  243  A    between atoms: _570  and  _572
REMARK  244  A    between atoms: _572  and  _573
REMARK  245  A    between atoms: _572  and  _575
REMARK  246  A    between atoms: _575  and  _576
REMARK  247  A    between atoms: _576  and  _577
REMARK  248  A    between atoms: _577  and  _578
REMARK                            x       y       z     vdW  Elec       q    Type
REMARK                         _______ _______ _______ _____ _____    ______ ____
ROOT
ATOM      1  CA  LEU A   2     -17.591   8.228  -8.365  0.00  0.00    +0.149 C 
ENDROOT
BRANCH   1   4
ATOM      2  C   LEU A   1     -18.672   6.121  -7.822  0.00  0.00    +0.238 C 
ATOM      3  O   LEU A   1     -19.435   6.659  -7.023  0.00  0.00    -0.274 OA
ATOM      4  N   LEU A   2     -17.767   6.792  -8.525  0.00  0.00    -0.297 N 
ATOM      5  H   LEU A   2     -17.170   6.280  -9.206  0.00  0.00    +0.150 HD
BRANCH   2   6
ATOM      6  CA  LEU A   1     -18.723   4.617  -8.069  0.00  0.00    +0.145 C 
BRANCH   6   7
ATOM      7  N   LEU A   1     -19.142   3.895  -6.878  0.00  0.00    -0.238 NA
ATOM      8  H   LEU A   1     -20.133   3.946  -6.567  0.00  0.00    +0.142 HD
ENDBRANCH   6   7
BRANCH   6   9
ATOM      9  CB  LEU A   1     -19.663   4.326  -9.233  0.00  0.00    +0.026 C 
BRANCH   9  10
ATOM     10  CG  LEU A   1     -19.747   2.868  -9.700  0.00  0.00    +0.002 C 
ATOM     11  CD2 LEU A   1     -18.388   2.353 -10.122  0.00  0.00    +0.000 C 
ATOM     12  CD1 LEU A   1     -20.710   2.795 -10.859  0.00  0.00    +0.000 C 
ENDBRANCH   9  10
ENDBRANCH   6   9
ENDBRANCH   2   6
ENDBRANCH   1   4
BRANCH   1  13
ATOM     13  C   LEU A   2     -18.019   8.957  -9.629  0.00  0.00    +0.241 C 
ATOM     14  N   SER A   3     -18.960   9.882  -9.467  0.00  0.00    -0.296 N 
ATOM     15  H   SER A   3     -19.349  10.033  -8.514  0.00  0.00    +0.150 HD
ATOM     16  O   LEU A   2     -17.517   8.679 -10.721  0.00  0.00    -0.273 OA
BRANCH  14  17
ATOM     17  CA  SER A   3     -19.471  10.694 -10.565  0.00  0.00    +0.166 C 
BRANCH  17  18
ATOM     18  C   SER A   3     -18.820  12.078 -10.482  0.00  0.00    +0.229 C 
ATOM     19  O   SER A   3     -17.906  12.285  -9.684  0.00  0.00    -0.286 OA
ENDBRANCH  17  18
BRANCH  17  20
ATOM     20  CB  SER A   3     -20.994  10.822 -10.447  0.00  0.00    +0.165 C 
BRANCH  20  21
ATOM     21  OG  SER A   3     -21.558  11.385 -11.618  0.00  0.00    -0.380 OA
ATOM     22  H   SER A   3     -21.350  10.806 -12.394  0.00  0.00    +0.211 HD
ENDBRANCH  20  21
ENDBRANCH  17  20
ENDBRANCH  14  17
ENDBRANCH   1  13
BRANCH   1  23
ATOM     23  CB  LEU A   2     -16.126   8.547  -8.048  0.00  0.00    +0.029 C 
BRANCH  23  24
ATOM     24  CG  LEU A   2     -15.772  10.035  -7.979  0.00  0.00    +0.002 C 
ATOM     25  CD2 LEU A   2     -16.574  10.712  -6.873  0.00  0.00    +0.000 C 
ATOM     26  CD1 LEU A   2     -14.280  10.185  -7.713  0.00  0.00    +0.000 C 
ENDBRANCH  23  24
ENDBRANCH   1  23
TORSDOF 12
REMARK  Name = ../refined-set-2016/4ase/4ase_pocket.pdb
REMARK  248 active torsions:
REMARK  status: ('A' for Active; 'I' for Inactive)
REMARK    1  A    between atoms: _1  and  _3
REMARK    2  A    between atoms: _3  and  _4
REMARK    3  A    between atoms: _3  and  _6
REMARK    4  A    between atoms: _6  and  _7
REMARK    5  A    between atoms: _10  and  _12
REMARK    6  A    between atoms: _12  and  _13
REMARK    7  A    between atoms: _12  and  _15
REMARK    8  A    between atoms: _15  and  _16
REMARK    9  A    between atoms: _16  and  _17
REMARK   10  A    between atoms: _17  and  _18
REMARK   11  A    between atoms: _18  and  _19
REMARK   12  A    between atoms: _24  and  _25
REMARK   13  A    between atoms: _30  and  _32
REMARK   14  A    between atoms: _32  and  _33
REMARK   15  A    between atoms: _32  and  _35
REMARK   16  A    between atoms: _35  and  _36
REMARK   17  A    between atoms: _39  and  _41
REMARK   18  A    between atoms: _41  and  _42
REMARK   19  A    between atoms: _44  and  _46
REMARK   20  A    between atoms: _46  and  _47
REMARK   21  A    between atoms: _46  and  _49
REMARK   22  A    between atoms: _49  and  _50
REMARK   23  A    between atoms: _50  and  _51
REMARK   24  A    between atoms: _51  and  _52
REMARK   25  A    between atoms: _61  and  _63
REMARK   26  A    between atoms: _63  and  _64
REMARK   27  A    between atoms: _63  and  _66
REMARK   28  A    between atoms: _66  and  _67
REMARK   29  A    between atoms: _67  and  _68
REMARK   30  A    between atoms: _73  and  _75
REMARK   31  A    between atoms: _75  and  _76
REMARK   32  A    between atoms: _75  and  _78
REMARK   33  A    between atoms: _81  and  _83
REMARK   34  A    between atoms: _83  and  _84
REMARK   35  A    between atoms: _83  and  _86
REMARK   36  A    between atoms: _86  and  _87
REMARK   37  A    between atoms: _90  and  _92
REMARK   38  A    between atoms: _92  and  _93
REMARK   39  A    between atoms: _92  and  _95
REMARK   40  A    between atoms: _95  and  _96
REMARK   41  A    between atoms: _96  and  _97
REMARK   42  A    between atoms: _100  and  _102
REMARK   43  A    between atoms: _102  and  _103
REMARK   44  A    between atoms: _102  and  _105
REMARK   45  A    between atoms: _105  and  _106
REMARK   46  A    between atoms: _109  and  _111
REMARK   47  A    between atoms: _111  and  _112
REMARK   48  A    between atoms: _111  and  _114
REMARK   49  A    between atoms: _117  and  _119
REMARK   50  A    between atoms: _119  and  _120
REMARK   51  A    between atoms: _123  and  _125
REMARK   52  A    between atoms: _125  and  _126
REMARK   53  A    between atoms: _125  and  _128
REMARK   54  A    between atoms: _131  and  _133
REMARK   55  A    between atoms: _133  and  _134
REMARK   56  A    between atoms: _133  and  _136
REMARK   57  A    between atoms: _136  and  _137
REMARK   58  A    between atoms: _137  and  _138
REMARK   59  A    between atoms: _138  and  _139
REMARK   60  A    between atoms: _139  and  _140
REMARK   61  A    between atoms: _144  and  _146
REMARK   62  A    between atoms: _146  and  _147
REMARK   63  A    between atoms: _146  and  _149
REMARK   64  A    between atoms: _149  and  _150
REMARK   65  A    between atoms: _150  and  _151
REMARK   66  A    between atoms: _153  and  _155
REMARK   67  A    between atoms: _155  and  _156
REMARK   68  A    between atoms: _155  and  _158
REMARK   69  A    between atoms: _158  and  _159
REMARK   70  A    between atoms: _162  and  _164
REMARK   71  A    between atoms: _164  and  _165
REMARK   72  A    between atoms: _164  and  _167
REMARK   73  A    between atoms: _167  and  _168
REMARK   74  A    between atoms: _170  and  _172
REMARK   75  A    between atoms: _172  and  _173
REMARK   76  A    between atoms: _172  and  _175
REMARK   77  A    between atoms: _175  and  _176
REMARK   78  A    between atoms: _176  and  _177
REMARK   79  A    between atoms: _180  and  _182
REMARK   80  A    between atoms: _182  and  _183
REMARK   81  A    between atoms: _182  and  _185
REMARK   82  A    between atoms: _185  and  _186
REMARK   83  A    between atoms: _189  and  _191
REMARK   84  A    between atoms: _191  and  _192
REMARK   85  A    between atoms: _191  and  _194
REMARK   86  A    between atoms: _194  and  _195
REMARK   87  A    between atoms: _198  and  _200
REMARK   88  A    between atoms: _200  and  _201
REMARK   89  A    between atoms: _200  and  _203
REMARK   90  A    between atoms: _203  and  _204
REMARK   91  A    between atoms: _207  and  _209
REMARK   92  A    between atoms: _209  and  _210
REMARK   93  A    between atoms: _209  and  _212
REMARK   94  A    between atoms: _212  and  _213
REMARK   95  A    between atoms: _216  and  _218
REMARK   96  A    between atoms: _218  and  _219
REMARK   97  A    between atoms: _218  and  _221
REMARK   98  A    between atoms: _221  and  _222
REMARK   99  A    between atoms: _225  and  _227
REMARK  100  A    between atoms: _227  and  _228
REMARK  101  A    between atoms: _227  and  _230
REMARK  102  A    between atoms: _233  and  _235
REMARK  103  A    between atoms: _235  and  _236
REMARK  104  A    between atoms: _235  and  _238
REMARK  105  A    between atoms: _241  and  _243
REMARK  106  A    between atoms: _243  and  _244
REMARK  107  A    between atoms: _243  and  _246
REMARK  108  A    between atoms: _246  and  _247
REMARK  109  A    between atoms: _252  and  _254
REMARK  110  A    between atoms: _254  and  _255
REMARK  111  A    between atoms: _254  and  _257
REMARK  112  A    between atoms: _257  and  _258
REMARK  113  A    between atoms: _261  and  _263
REMARK  114  A    between atoms: _263  and  _264
REMARK  115  A    between atoms: _263  and  _266
REMARK  116  A    between atoms: _266  and  _267
REMARK  117  A    between atoms: _270  and  _272
REMARK  118  A    between atoms: _272  and  _273
REMARK  119  A    between atoms: _275  and  _277
REMARK  120  A    between atoms: _277  and  _278
REMARK  121  A    between atoms: _277  and  _280
REMARK  122  A    between atoms: _280  and  _281
REMARK  123  A    between atoms: _281  and  _282
REMARK  124  A    between atoms: _284  and  _286
REMARK  125  A    between atoms: _286  and  _287
REMARK  126  A    between atoms: _286  and  _289
REMARK  127  A    between atoms: _292  and  _294
REMARK  128  A    between atoms: _294  and  _295
REMARK  129  A    between atoms: _294  and  _297
REMARK  130  A    between atoms: _297  and  _298
REMARK  131  A    between atoms: _301  and  _303
REMARK  132  A    between atoms: _303  and  _304
REMARK  133  A    between atoms: _303  and  _306
REMARK  134  A    between atoms: _309  and  _311
REMARK  135  A    between atoms: _311  and  _312
REMARK  136  A    between atoms: _311  and  _314
REMARK  137  A    between atoms: _314  and  _315
REMARK  138  A    between atoms: _315  and  _316
REMARK  139  A    between atoms: _319  and  _321
REMARK  140  A    between atoms: _321  and  _322
REMARK  141  A    between atoms: _321  and  _324
REMARK  142  A    between atoms: _324  and  _325
REMARK  143  A    between atoms: _331  and  _333
REMARK  144  A    between atoms: _333  and  _334
REMARK  145  A    between atoms: _333  and  _336
REMARK  146  A    between atoms: _338  and  _340
REMARK  147  A    between atoms: _340  and  _341
REMARK  148  A    between atoms: _340  and  _343
REMARK  149  A    between atoms: _343  and  _344
REMARK  150  A    between atoms: _344  and  _345
REMARK  151  A    between atoms: _345  and  _346
REMARK  152  A    between atoms: _346  and  _347
REMARK  153  A    between atoms: _351  and  _353
REMARK  154  A    between atoms: _353  and  _354
REMARK  155  A    between atoms: _353  and  _356
REMARK  156  A    between atoms: _356  and  _357
REMARK  157  A    between atoms: _363  and  _365
REMARK  158  A    between atoms: _365  and  _366
REMARK  159  A    between atoms: _368  and  _370
REMARK  160  A    between atoms: _370  and  _371
REMARK  161  A    between atoms: _370  and  _373
REMARK  162  A    between atoms: _373  and  _374
REMARK  163  A    between atoms: _379  and  _381
REMARK  164  A    between atoms: _381  and  _382
REMARK  165  A    between atoms: _384  and  _386
REMARK  166  A    between atoms: _386  and  _387
REMARK  167  A    between atoms: _386  and  _389
REMARK  168  A    between atoms: _389  and  _390
REMARK  169  A    between atoms: _390  and  _391
REMARK  170  A    between atoms: _393  and  _395
REMARK  171  A    between atoms: _395  and  _396
REMARK  172  A    between atoms: _395  and  _398
REMARK  173  A    between atoms: _398  and  _399
REMARK  174  A    between atoms: _402  and  _404
REMARK  175  A    between atoms: _404  and  _405
REMARK  176  A    between atoms: _404  and  _407
REMARK  177  A    between atoms: _409  and  _411
REMARK  178  A    between atoms: _411  and  _412
REMARK  179  A    between atoms: _411  and  _414
REMARK  180  A    between atoms: _414  and  _415
REMARK  181  A    between atoms: _418  and  _420
REMARK  182  A    between atoms: _420  and  _421
REMARK  183  A    between atoms: _420  and  _423
REMARK  184  A    between atoms: _423  and  _424
REMARK  185  A    between atoms: _429  and  _431
REMARK  186  A    between atoms: _431  and  _432
REMARK  187  A    between atoms: _431  and  _434
REMARK  188  A    between atoms: _434  and  _435
REMARK  189  A    between atoms: _435  and  _436
REMARK  190  A    between atoms: _436  and  _437
REMARK  191  A    between atoms: _446  and  _448
REMARK  192  A    between atoms: _448  and  _449
REMARK  193  A    between atoms: _448  and  _451
REMARK  194  A    between atoms: _451  and  _452
REMARK  195  A    between atoms: _452  and  _453
REMARK  196  A    between atoms: _453  and  _454
REMARK  197  A    between atoms: _463  and  _465
REMARK  198  A    between atoms: _465  and  _466
REMARK  199  A    between atoms: _465  and  _468
REMARK  200  A    between atoms: _468  and  _469
REMARK  201  A    between atoms: _474  and  _476
REMARK  202  A    between atoms: _476  and  _477
REMARK  203  A    between atoms: _476  and  _479
REMARK  204  A    between atoms: _479  and  _480
REMARK  205  A    between atoms: _483  and  _485
REMARK  206  A    between atoms: _485  and  _486
REMARK  207  A    between atoms: _485  and  _488
REMARK  208  A    between atoms: _488  and  _489
REMARK  209  A    between atoms: _492  and  _494
REMARK  210  A    between atoms: _494  and  _495
REMARK  211  A    between atoms: _494  and  _497
REMARK  212  A    between atoms: _497  and  _498
REMARK  213  A    between atoms: _500  and  _502
REMARK  214  A    between atoms: _502  and  _503
REMARK  215  A    between atoms: _502  and  _505
REMARK  216  A    between atoms: _505  and  _506
REMARK  217  A    between atoms: _506  and  _507
REMARK  218  A    between atoms: _507  and  _508
REMARK  219  A    between atoms: _508  and  _509
REMARK  220  A    between atoms: _513  and  _515
REMARK  221  A    between atoms: _515  and  _516
REMARK  222  A    between atoms: _515  and  _518
REMARK  223  A    between atoms: _518  and  _519
REMARK  224  A    between atoms: _522  and  _524
REMARK  225  A    between atoms: _524  and  _525
REMARK  226  A    between atoms: _524  and  _527
REMARK  227  A    between atoms: _529  and  _531
REMARK  228  A    between atoms: _531  and  _532
REMARK  229  A    between atoms: _531  and  _534
REMARK  230  A    between atoms: _534  and  _535
REMARK  231  A    between atoms: _538  and  _540
REMARK  232  A    between atoms: _540  and  _541
REMARK  233  A    between atoms: _540  and  _543
REMARK  234  A    between atoms: _543  and  _544
REMARK  235  A    between atoms: _550  and  _552
REMARK  236  A    between atoms: _552  and  _553
REMARK  237  A    between atoms: _555  and  _557
REMARK  238  A    between atoms: _557  and  _558
REMARK  239  A    between atoms: _557  and  _560
REMARK  240  A    between atoms: _560  and  _561
REMARK  241  A    between atoms: _564  and  _566
REMARK  242  A    between atoms: _566  and  _567
REMARK  243  A    between atoms: _570  and  _572
REMARK  244  A    between atoms: _572  and  _573
REMARK  245  A    between atoms: _572  and  _575
REMARK  246  A    between atoms: _575  and  _576
REMARK  247  A    between atoms: _576  and  _577
REMARK  248  A    between atoms: _577  and  _578
REMARK                            x       y       z     vdW  Elec       q    Type
REMARK                         _______ _______ _______ _____ _____    ______ ____
ROOT
ATOM      1  CA  PHE A   5     -21.655  -5.078 -10.192  0.00  0.00    +0.153 C 
ENDROOT
BRANCH   1   2
ATOM      2  C   PHE A   5     -22.231  -6.461 -10.441  0.00  0.00    +0.241 C 
ATOM      3  N   GLY A   6     -22.353  -7.252  -9.380  0.00  0.00    -0.295 N 
ATOM      4  H   GLY A   6     -22.044  -6.915  -8.446  0.00  0.00    +0.150 HD
ATOM      5  O   PHE A   5     -22.571  -6.803 -11.576  0.00  0.00    -0.273 OA
BRANCH   3   6
ATOM      6  CA  GLY A   6     -22.916  -8.586  -9.517  0.00  0.00    +0.176 C 
BRANCH   6   7
ATOM      7  C   GLY A   6     -22.273  -9.410 -10.627  0.00  0.00    +0.243 C 
ATOM      8  O   GLY A   6     -21.071  -9.641 -10.626  0.00  0.00    -0.273 OA
ATOM      9  N   LEU A   7     -23.079  -9.838 -11.591  0.00  0.00    -0.297 N 
ATOM     10  H   LEU A   7     -24.079  -9.554 -11.577  0.00  0.00    +0.150 HD
BRANCH   9  11
ATOM     11  CA  LEU A   7     -22.599 -10.697 -12.672  0.00  0.00    +0.149 C 
BRANCH  11  12
ATOM     12  C   LEU A   7     -21.566 -10.022 -13.575  0.00  0.00    +0.241 C 
ATOM     13  N   ALA A   8     -21.496  -8.693 -13.540  0.00  0.00    -0.297 N 
ATOM     14  H   ALA A   8     -22.101  -8.164 -12.880  0.00  0.00    +0.150 HD
ATOM     15  O   LEU A   7     -20.844 -10.699 -14.301  0.00  0.00    -0.273 OA
BRANCH  13  16
ATOM     16  CA  ALA A   8     -20.580  -7.970 -14.418  0.00  0.00    +0.149 C 
ATOM     17  CB  ALA A   8     -21.098  -6.556 -14.675  0.00  0.00    +0.031 C 
BRANCH  16  18
ATOM     18  C   ALA A   8     -19.156  -7.917 -13.867  0.00  0.00    +0.241 C 
ATOM     19  N   ARG A   9     -18.949  -8.524 -12.703  0.00  0.00    -0.298 N 
ATOM     20  H   ARG A   9     -19.764  -8.879 -12.163  0.00  0.00    +0.150 HD
ATOM     21  O   ALA A   8     -18.263  -7.333 -14.486  0.00  0.00    -0.273 OA
BRANCH  19  22
ATOM     22  CA  ARG A   9     -17.607  -8.704 -12.165  0.00  0.00    +0.137 C 
BRANCH  22  23
ATOM     23  C   ARG A   9     -17.209 -10.171 -12.256  0.00  0.00    +0.227 C 
ATOM     24  O   ARG A   9     -18.013 -11.058 -11.978  0.00  0.00    -0.286 OA
ENDBRANCH  22  23
BRANCH  22  25
ATOM     25  CB  ARG A   9     -17.550  -8.260 -10.702  0.00  0.00    +0.031 C 
BRANCH  25  26
ATOM     26  CG  ARG A   9     -16.241  -8.609 -10.010  0.00  0.00    +0.045 C 
BRANCH  26  27
ATOM     27  CD  ARG A   9     -16.205  -8.104  -8.577  0.00  0.00    +0.174 C 
BRANCH  27  28
ATOM     28  NE  ARG A   9     -16.192  -6.647  -8.514  0.00  0.00    -0.265 N 
ATOM     29  CZ  ARG A   9     -17.198  -5.909  -8.057  0.00  0.00    +0.342 C 
ATOM     30  NH2 ARG A   9     -18.310  -6.486  -7.614  0.00  0.00    -0.292 N 
ATOM     31 HH21 ARG A   9     -19.093  -5.901  -7.258  0.00  0.00    +0.255 HD
ATOM     32 HH22 ARG A   9     -18.397  -7.522  -7.623  0.00  0.00    +0.255 HD
ATOM     33  NH1 ARG A   9     -17.091  -4.593  -8.041  0.00  0.00    -0.292 N 
ATOM     34 HH11 ARG A   9     -17.876  -4.012  -7.684  0.00  0.00    +0.255 HD
ATOM     35 HH12 ARG A   9     -16.222  -4.138  -8.385  0.00  0.00    +0.255 HD
ATOM     36  HE  ARG A   9     -15.340  -6.154  -8.849  0.00  0.00    +0.259 HD
ENDBRANCH  27  28
ENDBRANCH  26  27
ENDBRANCH  25  26
ENDBRANCH  22  25
ENDBRANCH  19  22
ENDBRANCH  16  18
ENDBRANCH  13  16
ENDBRANCH  11  12
BRANCH  11  37
ATOM     37  CB  LEU A   7     -23.780 -11.175 -13.524  0.00  0.00    +0.029 C 
BRANCH  37  38
ATOM     38  CG  LEU A   7     -24.761 -12.162 -12.881  0.00  0.00    +0.002 C 
ATOM     39  CD2 LEU A   7     -25.371 -11.552 -11.629  0.00  0.00    +0.000 C 
ATOM     40  CD1 LEU A   7     -25.852 -12.526 -13.880  0.00  0.00    +0.000 C 
ENDBRANCH  37  38
ENDBRANCH  11  37
ENDBRANCH   9  11
ENDBRANCH   6   7
ENDBRANCH   3   6
ENDBRANCH   1   2
BRANCH   1  42
ATOM     41  C   ASP A   4     -23.220  -4.303  -8.546  0.00  0.00    +0.241 C 
ATOM     42  N   PHE A   5     -21.970  -4.613  -8.852  0.00  0.00    -0.297 N 
ATOM     43  H   PHE A   5     -21.219  -4.524  -8.138  0.00  0.00    +0.150 HD
ATOM     44  O   ASP A   4     -24.147  -4.434  -9.338  0.00  0.00    -0.273 OA
BRANCH  41  45
ATOM     45  CA  ASP A   4     -23.463  -3.751  -7.155  0.00  0.00    +0.160 C 
BRANCH  45  48
ATOM     46  C   CYS A   3     -23.384  -1.442  -6.424  0.00  0.00    +0.242 C 
ATOM     47  O   CYS A   3     -22.939  -1.745  -5.321  0.00  0.00    -0.273 OA
ATOM     48  N   ASP A   4     -23.797  -2.342  -7.306  0.00  0.00    -0.297 N 
ATOM     49  H   ASP A   4     -24.369  -2.036  -8.119  0.00  0.00    +0.150 HD
BRANCH  46  50
ATOM     50  CA  CYS A   3     -23.491   0.014  -6.858  0.00  0.00    +0.160 C 
BRANCH  50  52
ATOM     51  C   ILE A   2     -23.937   1.933  -5.393  0.00  0.00    +0.241 C 
ATOM     52  N   CYS A   3     -23.171   0.900  -5.741  0.00  0.00    -0.296 N 
ATOM     53  H   CYS A   3     -22.306   0.716  -5.193  0.00  0.00    +0.150 HD
ATOM     54  O   ILE A   2     -24.955   2.265  -6.004  0.00  0.00    -0.273 OA
BRANCH  51  55
ATOM     55  CA  ILE A   2     -23.477   2.728  -4.178  0.00  0.00    +0.148 C 
BRANCH  55  57
ATOM     56  C   LYS A   1     -22.716   4.685  -5.371  0.00  0.00    +0.238 C 
ATOM     57  N   ILE A   2     -23.560   4.139  -4.507  0.00  0.00    -0.297 N 
ATOM     58  H   ILE A   2     -24.290   4.729  -4.060  0.00  0.00    +0.150 HD
ATOM     59  O   LYS A   1     -21.773   4.066  -5.862  0.00  0.00    -0.274 OA
BRANCH  56  60
ATOM     60  CA  LYS A   1     -22.960   6.150  -5.703  0.00  0.00    +0.145 C 
BRANCH  60  61
ATOM     61  N   LYS A   1     -21.737   6.924  -5.584  0.00  0.00    -0.238 NA
ATOM     62  H   LYS A   1     -20.870   6.589  -6.050  0.00  0.00    +0.142 HD
ENDBRANCH  60  61
BRANCH  60  63
ATOM     63  CB  LYS A   1     -23.533   6.318  -7.116  0.00  0.00    +0.026 C 
BRANCH  63  64
ATOM     64  CG  LYS A   1     -23.951   7.772  -7.388  0.00  0.00    -0.000 C 
BRANCH  64  65
ATOM     65  CD  LYS A   1     -24.210   8.065  -8.850  0.00  0.00    -0.024 C 
BRANCH  65  66
ATOM     66  CE  LYS A   1     -24.479   9.559  -9.068  0.00  0.00    -0.086 C 
BRANCH  66  67
ATOM     67  NZ  LYS A   1     -25.804   9.979  -8.527  0.00  0.00    +0.380 N 
ATOM     68  HZ1 LYS A   1     -25.835   9.791  -7.505  0.00  0.00    -0.089 HD
ATOM     69  HZ2 LYS A   1     -25.940  10.996  -8.698  0.00  0.00    -0.089 HD
ATOM     70  HZ3 LYS A   1     -26.557   9.442  -9.003  0.00  0.00    -0.089 HD
ENDBRANCH  66  67
ENDBRANCH  65  66
ENDBRANCH  64  65
ENDBRANCH  63  64
ENDBRANCH  60  63
ENDBRANCH  56  60
ENDBRANCH  55  57
BRANCH  55  71
ATOM     71  CB  ILE A   2     -24.376   2.391  -2.973  0.00  0.00    +0.027 C 
ATOM     72  CG2 ILE A   2     -24.384   0.894  -2.731  0.00  0.00    +0.002 C 
BRANCH  71  73
ATOM     73  CG1 ILE A   2     -23.873   3.129  -1.724  0.00  0.00    +0.002 C 
ATOM     74  CD1 ILE A   2     -24.844   3.077  -0.554  0.00  0.00    +0.000 C 
ENDBRANCH  71  73
ENDBRANCH  55  71
ENDBRANCH  51  55
ENDBRANCH  50  52
BRANCH  50  75
ATOM     75  CB  CYS A   3     -22.517   0.255  -8.021  0.00  0.00    +0.098 C 
ATOM     76  SG  CYS A   3     -22.574   1.955  -8.577  0.00  0.00    -0.080 S 
ENDBRANCH  50  75
ENDBRANCH  46  50
ENDBRANCH  45  48
BRANCH  45  77
ATOM     77  CB  ASP A   4     -24.612  -4.509  -6.493  0.00  0.00    +0.143 C 
BRANCH  77  78
ATOM     78  CG  ASP A   4     -24.257  -5.951  -6.187  0.00  0.00    +0.367 C 
ATOM     79  OD2 ASP A   4     -25.144  -6.686  -5.712  0.00  0.00    -0.246 OA
ATOM     80  OD1 ASP A   4     -23.095  -6.351  -6.418  0.00  0.00    -0.246 OA
ENDBRANCH  77  78
ENDBRANCH  45  77
ENDBRANCH  41  45
ENDBRANCH   1  42
BRANCH   1  81
ATOM     81  CB  PHE A   5     -20.142  -5.074 -10.408  0.00  0.00    +0.055 C 
BRANCH  81  82
ATOM     82  CG  PHE A   5     -19.605  -3.739 -10.836  0.00  0.00    -0.020 A 
ATOM     83  CD2 PHE A   5     -19.194  -2.805  -9.895  0.00  0.00    -0.004 A 
ATOM     84  CE2 PHE A   5     -18.720  -1.565 -10.289  0.00  0.00    -0.000 A 
ATOM     85  CZ  PHE A   5     -18.650  -1.244 -11.634  0.00  0.00    -0.000 A 
ATOM     86  CE1 PHE A   5     -19.055  -2.166 -12.582  0.00  0.00    -0.000 A 
ATOM     87  CD1 PHE A   5     -19.532  -3.409 -12.178  0.00  0.00    -0.004 A 
ENDBRANCH  81  82
ENDBRANCH   1  81
TORSDOF 36
REMARK  Name = ../refined-set-2016/4ase/4ase_pocket.pdb
REMARK  248 active torsions:
REMARK  status: ('A' for Active; 'I' for Inactive)
REMARK    1  A    between atoms: _1  and  _3
REMARK    2  A    between atoms: _3  and  _4
REMARK    3  A    between atoms: _3  and  _6
REMARK    4  A    between atoms: _6  and  _7
REMARK    5  A    between atoms: _10  and  _12
REMARK    6  A    between atoms: _12  and  _13
REMARK    7  A    between atoms: _12  and  _15
REMARK    8  A    between atoms: _15  and  _16
REMARK    9  A    between atoms: _16  and  _17
REMARK   10  A    between atoms: _17  and  _18
REMARK   11  A    between atoms: _18  and  _19
REMARK   12  A    between atoms: _24  and  _25
REMARK   13  A    between atoms: _30  and  _32
REMARK   14  A    between atoms: _32  and  _33
REMARK   15  A    between atoms: _32  and  _35
REMARK   16  A    between atoms: _35  and  _36
REMARK   17  A    between atoms: _39  and  _41
REMARK   18  A    between atoms: _41  and  _42
REMARK   19  A    between atoms: _44  and  _46
REMARK   20  A    between atoms: _46  and  _47
REMARK   21  A    between atoms: _46  and  _49
REMARK   22  A    between atoms: _49  and  _50
REMARK   23  A    between atoms: _50  and  _51
REMARK   24  A    between atoms: _51  and  _52
REMARK   25  A    between atoms: _61  and  _63
REMARK   26  A    between atoms: _63  and  _64
REMARK   27  A    between atoms: _63  and  _66
REMARK   28  A    between atoms: _66  and  _67
REMARK   29  A    between atoms: _67  and  _68
REMARK   30  A    between atoms: _73  and  _75
REMARK   31  A    between atoms: _75  and  _76
REMARK   32  A    between atoms: _75  and  _78
REMARK   33  A    between atoms: _81  and  _83
REMARK   34  A    between atoms: _83  and  _84
REMARK   35  A    between atoms: _83  and  _86
REMARK   36  A    between atoms: _86  and  _87
REMARK   37  A    between atoms: _90  and  _92
REMARK   38  A    between atoms: _92  and  _93
REMARK   39  A    between atoms: _92  and  _95
REMARK   40  A    between atoms: _95  and  _96
REMARK   41  A    between atoms: _96  and  _97
REMARK   42  A    between atoms: _100  and  _102
REMARK   43  A    between atoms: _102  and  _103
REMARK   44  A    between atoms: _102  and  _105
REMARK   45  A    between atoms: _105  and  _106
REMARK   46  A    between atoms: _109  and  _111
REMARK   47  A    between atoms: _111  and  _112
REMARK   48  A    between atoms: _111  and  _114
REMARK   49  A    between atoms: _117  and  _119
REMARK   50  A    between atoms: _119  and  _120
REMARK   51  A    between atoms: _123  and  _125
REMARK   52  A    between atoms: _125  and  _126
REMARK   53  A    between atoms: _125  and  _128
REMARK   54  A    between atoms: _131  and  _133
REMARK   55  A    between atoms: _133  and  _134
REMARK   56  A    between atoms: _133  and  _136
REMARK   57  A    between atoms: _136  and  _137
REMARK   58  A    between atoms: _137  and  _138
REMARK   59  A    between atoms: _138  and  _139
REMARK   60  A    between atoms: _139  and  _140
REMARK   61  A    between atoms: _144  and  _146
REMARK   62  A    between atoms: _146  and  _147
REMARK   63  A    between atoms: _146  and  _149
REMARK   64  A    between atoms: _149  and  _150
REMARK   65  A    between atoms: _150  and  _151
REMARK   66  A    between atoms: _153  and  _155
REMARK   67  A    between atoms: _155  and  _156
REMARK   68  A    between atoms: _155  and  _158
REMARK   69  A    between atoms: _158  and  _159
REMARK   70  A    between atoms: _162  and  _164
REMARK   71  A    between atoms: _164  and  _165
REMARK   72  A    between atoms: _164  and  _167
REMARK   73  A    between atoms: _167  and  _168
REMARK   74  A    between atoms: _170  and  _172
REMARK   75  A    between atoms: _172  and  _173
REMARK   76  A    between atoms: _172  and  _175
REMARK   77  A    between atoms: _175  and  _176
REMARK   78  A    between atoms: _176  and  _177
REMARK   79  A    between atoms: _180  and  _182
REMARK   80  A    between atoms: _182  and  _183
REMARK   81  A    between atoms: _182  and  _185
REMARK   82  A    between atoms: _185  and  _186
REMARK   83  A    between atoms: _189  and  _191
REMARK   84  A    between atoms: _191  and  _192
REMARK   85  A    between atoms: _191  and  _194
REMARK   86  A    between atoms: _194  and  _195
REMARK   87  A    between atoms: _198  and  _200
REMARK   88  A    between atoms: _200  and  _201
REMARK   89  A    between atoms: _200  and  _203
REMARK   90  A    between atoms: _203  and  _204
REMARK   91  A    between atoms: _207  and  _209
REMARK   92  A    between atoms: _209  and  _210
REMARK   93  A    between atoms: _209  and  _212
REMARK   94  A    between atoms: _212  and  _213
REMARK   95  A    between atoms: _216  and  _218
REMARK   96  A    between atoms: _218  and  _219
REMARK   97  A    between atoms: _218  and  _221
REMARK   98  A    between atoms: _221  and  _222
REMARK   99  A    between atoms: _225  and  _227
REMARK  100  A    between atoms: _227  and  _228
REMARK  101  A    between atoms: _227  and  _230
REMARK  102  A    between atoms: _233  and  _235
REMARK  103  A    between atoms: _235  and  _236
REMARK  104  A    between atoms: _235  and  _238
REMARK  105  A    between atoms: _241  and  _243
REMARK  106  A    between atoms: _243  and  _244
REMARK  107  A    between atoms: _243  and  _246
REMARK  108  A    between atoms: _246  and  _247
REMARK  109  A    between atoms: _252  and  _254
REMARK  110  A    between atoms: _254  and  _255
REMARK  111  A    between atoms: _254  and  _257
REMARK  112  A    between atoms: _257  and  _258
REMARK  113  A    between atoms: _261  and  _263
REMARK  114  A    between atoms: _263  and  _264
REMARK  115  A    between atoms: _263  and  _266
REMARK  116  A    between atoms: _266  and  _267
REMARK  117  A    between atoms: _270  and  _272
REMARK  118  A    between atoms: _272  and  _273
REMARK  119  A    between atoms: _275  and  _277
REMARK  120  A    between atoms: _277  and  _278
REMARK  121  A    between atoms: _277  and  _280
REMARK  122  A    between atoms: _280  and  _281
REMARK  123  A    between atoms: _281  and  _282
REMARK  124  A    between atoms: _284  and  _286
REMARK  125  A    between atoms: _286  and  _287
REMARK  126  A    between atoms: _286  and  _289
REMARK  127  A    between atoms: _292  and  _294
REMARK  128  A    between atoms: _294  and  _295
REMARK  129  A    between atoms: _294  and  _297
REMARK  130  A    between atoms: _297  and  _298
REMARK  131  A    between atoms: _301  and  _303
REMARK  132  A    between atoms: _303  and  _304
REMARK  133  A    between atoms: _303  and  _306
REMARK  134  A    between atoms: _309  and  _311
REMARK  135  A    between atoms: _311  and  _312
REMARK  136  A    between atoms: _311  and  _314
REMARK  137  A    between atoms: _314  and  _315
REMARK  138  A    between atoms: _315  and  _316
REMARK  139  A    between atoms: _319  and  _321
REMARK  140  A    between atoms: _321  and  _322
REMARK  141  A    between atoms: _321  and  _324
REMARK  142  A    between atoms: _324  and  _325
REMARK  143  A    between atoms: _331  and  _333
REMARK  144  A    between atoms: _333  and  _334
REMARK  145  A    between atoms: _333  and  _336
REMARK  146  A    between atoms: _338  and  _340
REMARK  147  A    between atoms: _340  and  _341
REMARK  148  A    between atoms: _340  and  _343
REMARK  149  A    between atoms: _343  and  _344
REMARK  150  A    between atoms: _344  and  _345
REMARK  151  A    between atoms: _345  and  _346
REMARK  152  A    between atoms: _346  and  _347
REMARK  153  A    between atoms: _351  and  _353
REMARK  154  A    between atoms: _353  and  _354
REMARK  155  A    between atoms: _353  and  _356
REMARK  156  A    between atoms: _356  and  _357
REMARK  157  A    between atoms: _363  and  _365
REMARK  158  A    between atoms: _365  and  _366
REMARK  159  A    between atoms: _368  and  _370
REMARK  160  A    between atoms: _370  and  _371
REMARK  161  A    between atoms: _370  and  _373
REMARK  162  A    between atoms: _373  and  _374
REMARK  163  A    between atoms: _379  and  _381
REMARK  164  A    between atoms: _381  and  _382
REMARK  165  A    between atoms: _384  and  _386
REMARK  166  A    between atoms: _386  and  _387
REMARK  167  A    between atoms: _386  and  _389
REMARK  168  A    between atoms: _389  and  _390
REMARK  169  A    between atoms: _390  and  _391
REMARK  170  A    between atoms: _393  and  _395
REMARK  171  A    between atoms: _395  and  _396
REMARK  172  A    between atoms: _395  and  _398
REMARK  173  A    between atoms: _398  and  _399
REMARK  174  A    between atoms: _402  and  _404
REMARK  175  A    between atoms: _404  and  _405
REMARK  176  A    between atoms: _404  and  _407
REMARK  177  A    between atoms: _409  and  _411
REMARK  178  A    between atoms: _411  and  _412
REMARK  179  A    between atoms: _411  and  _414
REMARK  180  A    between atoms: _414  and  _415
REMARK  181  A    between atoms: _418  and  _420
REMARK  182  A    between atoms: _420  and  _421
REMARK  183  A    between atoms: _420  and  _423
REMARK  184  A    between atoms: _423  and  _424
REMARK  185  A    between atoms: _429  and  _431
REMARK  186  A    between atoms: _431  and  _432
REMARK  187  A    between atoms: _431  and  _434
REMARK  188  A    between atoms: _434  and  _435
REMARK  189  A    between atoms: _435  and  _436
REMARK  190  A    between atoms: _436  and  _437
REMARK  191  A    between atoms: _446  and  _448
REMARK  192  A    between atoms: _448  and  _449
REMARK  193  A    between atoms: _448  and  _451
REMARK  194  A    between atoms: _451  and  _452
REMARK  195  A    between atoms: _452  and  _453
REMARK  196  A    between atoms: _453  and  _454
REMARK  197  A    between atoms: _463  and  _465
REMARK  198  A    between atoms: _465  and  _466
REMARK  199  A    between atoms: _465  and  _468
REMARK  200  A    between atoms: _468  and  _469
REMARK  201  A    between atoms: _474  and  _476
REMARK  202  A    between atoms: _476  and  _477
REMARK  203  A    between atoms: _476  and  _479
REMARK  204  A    between atoms: _479  and  _480
REMARK  205  A    between atoms: _483  and  _485
REMARK  206  A    between atoms: _485  and  _486
REMARK  207  A    between atoms: _485  and  _488
REMARK  208  A    between atoms: _488  and  _489
REMARK  209  A    between atoms: _492  and  _494
REMARK  210  A    between atoms: _494  and  _495
REMARK  211  A    between atoms: _494  and  _497
REMARK  212  A    between atoms: _497  and  _498
REMARK  213  A    between atoms: _500  and  _502
REMARK  214  A    between atoms: _502  and  _503
REMARK  215  A    between atoms: _502  and  _505
REMARK  216  A    between atoms: _505  and  _506
REMARK  217  A    between atoms: _506  and  _507
REMARK  218  A    between atoms: _507  and  _508
REMARK  219  A    between atoms: _508  and  _509
REMARK  220  A    between atoms: _513  and  _515
REMARK  221  A    between atoms: _515  and  _516
REMARK  222  A    between atoms: _515  and  _518
REMARK  223  A    between atoms: _518  and  _519
REMARK  224  A    between atoms: _522  and  _524
REMARK  225  A    between atoms: _524  and  _525
REMARK  226  A    between atoms: _524  and  _527
REMARK  227  A    between atoms: _529  and  _531
REMARK  228  A    between atoms: _531  and  _532
REMARK  229  A    between atoms: _531  and  _534
REMARK  230  A    between atoms: _534  and  _535
REMARK  231  A    between atoms: _538  and  _540
REMARK  232  A    between atoms: _540  and  _541
REMARK  233  A    between atoms: _540  and  _543
REMARK  234  A    between atoms: _543  and  _544
REMARK  235  A    between atoms: _550  and  _552
REMARK  236  A    between atoms: _552  and  _553
REMARK  237  A    between atoms: _555  and  _557
REMARK  238  A    between atoms: _557  and  _558
REMARK  239  A    between atoms: _557  and  _560
REMARK  240  A    between atoms: _560  and  _561
REMARK  241  A    between atoms: _564  and  _566
REMARK  242  A    between atoms: _566  and  _567
REMARK  243  A    between atoms: _570  and  _572
REMARK  244  A    between atoms: _572  and  _573
REMARK  245  A    between atoms: _572  and  _575
REMARK  246  A    between atoms: _575  and  _576
REMARK  247  A    between atoms: _576  and  _577
REMARK  248  A    between atoms: _577  and  _578
REMARK                            x       y       z     vdW  Elec       q    Type
REMARK                         _______ _______ _______ _____ _____    ______ ____
ROOT
ATOM      1  O   HOH     1     -11.579   2.426 -12.905  0.00  0.00    +0.000 OA
ENDROOT
TORSDOF 0
REMARK  Name = ../refined-set-2016/4ase/4ase_pocket.pdb
REMARK  248 active torsions:
REMARK  status: ('A' for Active; 'I' for Inactive)
REMARK    1  A    between atoms: _1  and  _3
REMARK    2  A    between atoms: _3  and  _4
REMARK    3  A    between atoms: _3  and  _6
REMARK    4  A    between atoms: _6  and  _7
REMARK    5  A    between atoms: _10  and  _12
REMARK    6  A    between atoms: _12  and  _13
REMARK    7  A    between atoms: _12  and  _15
REMARK    8  A    between atoms: _15  and  _16
REMARK    9  A    between atoms: _16  and  _17
REMARK   10  A    between atoms: _17  and  _18
REMARK   11  A    between atoms: _18  and  _19
REMARK   12  A    between atoms: _24  and  _25
REMARK   13  A    between atoms: _30  and  _32
REMARK   14  A    between atoms: _32  and  _33
REMARK   15  A    between atoms: _32  and  _35
REMARK   16  A    between atoms: _35  and  _36
REMARK   17  A    between atoms: _39  and  _41
REMARK   18  A    between atoms: _41  and  _42
REMARK   19  A    between atoms: _44  and  _46
REMARK   20  A    between atoms: _46  and  _47
REMARK   21  A    between atoms: _46  and  _49
REMARK   22  A    between atoms: _49  and  _50
REMARK   23  A    between atoms: _50  and  _51
REMARK   24  A    between atoms: _51  and  _52
REMARK   25  A    between atoms: _61  and  _63
REMARK   26  A    between atoms: _63  and  _64
REMARK   27  A    between atoms: _63  and  _66
REMARK   28  A    between atoms: _66  and  _67
REMARK   29  A    between atoms: _67  and  _68
REMARK   30  A    between atoms: _73  and  _75
REMARK   31  A    between atoms: _75  and  _76
REMARK   32  A    between atoms: _75  and  _78
REMARK   33  A    between atoms: _81  and  _83
REMARK   34  A    between atoms: _83  and  _84
REMARK   35  A    between atoms: _83  and  _86
REMARK   36  A    between atoms: _86  and  _87
REMARK   37  A    between atoms: _90  and  _92
REMARK   38  A    between atoms: _92  and  _93
REMARK   39  A    between atoms: _92  and  _95
REMARK   40  A    between atoms: _95  and  _96
REMARK   41  A    between atoms: _96  and  _97
REMARK   42  A    between atoms: _100  and  _102
REMARK   43  A    between atoms: _102  and  _103
REMARK   44  A    between atoms: _102  and  _105
REMARK   45  A    between atoms: _105  and  _106
REMARK   46  A    between atoms: _109  and  _111
REMARK   47  A    between atoms: _111  and  _112
REMARK   48  A    between atoms: _111  and  _114
REMARK   49  A    between atoms: _117  and  _119
REMARK   50  A    between atoms: _119  and  _120
REMARK   51  A    between atoms: _123  and  _125
REMARK   52  A    between atoms: _125  and  _126
REMARK   53  A    between atoms: _125  and  _128
REMARK   54  A    between atoms: _131  and  _133
REMARK   55  A    between atoms: _133  and  _134
REMARK   56  A    between atoms: _133  and  _136
REMARK   57  A    between atoms: _136  and  _137
REMARK   58  A    between atoms: _137  and  _138
REMARK   59  A    between atoms: _138  and  _139
REMARK   60  A    between atoms: _139  and  _140
REMARK   61  A    between atoms: _144  and  _146
REMARK   62  A    between atoms: _146  and  _147
REMARK   63  A    between atoms: _146  and  _149
REMARK   64  A    between atoms: _149  and  _150
REMARK   65  A    between atoms: _150  and  _151
REMARK   66  A    between atoms: _153  and  _155
REMARK   67  A    between atoms: _155  and  _156
REMARK   68  A    between atoms: _155  and  _158
REMARK   69  A    between atoms: _158  and  _159
REMARK   70  A    between atoms: _162  and  _164
REMARK   71  A    between atoms: _164  and  _165
REMARK   72  A    between atoms: _164  and  _167
REMARK   73  A    between atoms: _167  and  _168
REMARK   74  A    between atoms: _170  and  _172
REMARK   75  A    between atoms: _172  and  _173
REMARK   76  A    between atoms: _172  and  _175
REMARK   77  A    between atoms: _175  and  _176
REMARK   78  A    between atoms: _176  and  _177
REMARK   79  A    between atoms: _180  and  _182
REMARK   80  A    between atoms: _182  and  _183
REMARK   81  A    between atoms: _182  and  _185
REMARK   82  A    between atoms: _185  and  _186
REMARK   83  A    between atoms: _189  and  _191
REMARK   84  A    between atoms: _191  and  _192
REMARK   85  A    between atoms: _191  and  _194
REMARK   86  A    between atoms: _194  and  _195
REMARK   87  A    between atoms: _198  and  _200
REMARK   88  A    between atoms: _200  and  _201
REMARK   89  A    between atoms: _200  and  _203
REMARK   90  A    between atoms: _203  and  _204
REMARK   91  A    between atoms: _207  and  _209
REMARK   92  A    between atoms: _209  and  _210
REMARK   93  A    between atoms: _209  and  _212
REMARK   94  A    between atoms: _212  and  _213
REMARK   95  A    between atoms: _216  and  _218
REMARK   96  A    between atoms: _218  and  _219
REMARK   97  A    between atoms: _218  and  _221
REMARK   98  A    between atoms: _221  and  _222
REMARK   99  A    between atoms: _225  and  _227
REMARK  100  A    between atoms: _227  and  _228
REMARK  101  A    between atoms: _227  and  _230
REMARK  102  A    between atoms: _233  and  _235
REMARK  103  A    between atoms: _235  and  _236
REMARK  104  A    between atoms: _235  and  _238
REMARK  105  A    between atoms: _241  and  _243
REMARK  106  A    between atoms: _243  and  _244
REMARK  107  A    between atoms: _243  and  _246
REMARK  108  A    between atoms: _246  and  _247
REMARK  109  A    between atoms: _252  and  _254
REMARK  110  A    between atoms: _254  and  _255
REMARK  111  A    between atoms: _254  and  _257
REMARK  112  A    between atoms: _257  and  _258
REMARK  113  A    between atoms: _261  and  _263
REMARK  114  A    between atoms: _263  and  _264
REMARK  115  A    between atoms: _263  and  _266
REMARK  116  A    between atoms: _266  and  _267
REMARK  117  A    between atoms: _270  and  _272
REMARK  118  A    between atoms: _272  and  _273
REMARK  119  A    between atoms: _275  and  _277
REMARK  120  A    between atoms: _277  and  _278
REMARK  121  A    between atoms: _277  and  _280
REMARK  122  A    between atoms: _280  and  _281
REMARK  123  A    between atoms: _281  and  _282
REMARK  124  A    between atoms: _284  and  _286
REMARK  125  A    between atoms: _286  and  _287
REMARK  126  A    between atoms: _286  and  _289
REMARK  127  A    between atoms: _292  and  _294
REMARK  128  A    between atoms: _294  and  _295
REMARK  129  A    between atoms: _294  and  _297
REMARK  130  A    between atoms: _297  and  _298
REMARK  131  A    between atoms: _301  and  _303
REMARK  132  A    between atoms: _303  and  _304
REMARK  133  A    between atoms: _303  and  _306
REMARK  134  A    between atoms: _309  and  _311
REMARK  135  A    between atoms: _311  and  _312
REMARK  136  A    between atoms: _311  and  _314
REMARK  137  A    between atoms: _314  and  _315
REMARK  138  A    between atoms: _315  and  _316
REMARK  139  A    between atoms: _319  and  _321
REMARK  140  A    between atoms: _321  and  _322
REMARK  141  A    between atoms: _321  and  _324
REMARK  142  A    between atoms: _324  and  _325
REMARK  143  A    between atoms: _331  and  _333
REMARK  144  A    between atoms: _333  and  _334
REMARK  145  A    between atoms: _333  and  _336
REMARK  146  A    between atoms: _338  and  _340
REMARK  147  A    between atoms: _340  and  _341
REMARK  148  A    between atoms: _340  and  _343
REMARK  149  A    between atoms: _343  and  _344
REMARK  150  A    between atoms: _344  and  _345
REMARK  151  A    between atoms: _345  and  _346
REMARK  152  A    between atoms: _346  and  _347
REMARK  153  A    between atoms: _351  and  _353
REMARK  154  A    between atoms: _353  and  _354
REMARK  155  A    between atoms: _353  and  _356
REMARK  156  A    between atoms: _356  and  _357
REMARK  157  A    between atoms: _363  and  _365
REMARK  158  A    between atoms: _365  and  _366
REMARK  159  A    between atoms: _368  and  _370
REMARK  160  A    between atoms: _370  and  _371
REMARK  161  A    between atoms: _370  and  _373
REMARK  162  A    between atoms: _373  and  _374
REMARK  163  A    between atoms: _379  and  _381
REMARK  164  A    between atoms: _381  and  _382
REMARK  165  A    between atoms: _384  and  _386
REMARK  166  A    between atoms: _386  and  _387
REMARK  167  A    between atoms: _386  and  _389
REMARK  168  A    between atoms: _389  and  _390
REMARK  169  A    between atoms: _390  and  _391
REMARK  170  A    between atoms: _393  and  _395
REMARK  171  A    between atoms: _395  and  _396
REMARK  172  A    between atoms: _395  and  _398
REMARK  173  A    between atoms: _398  and  _399
REMARK  174  A    between atoms: _402  and  _404
REMARK  175  A    between atoms: _404  and  _405
REMARK  176  A    between atoms: _404  and  _407
REMARK  177  A    between atoms: _409  and  _411
REMARK  178  A    between atoms: _411  and  _412
REMARK  179  A    between atoms: _411  and  _414
REMARK  180  A    between atoms: _414  and  _415
REMARK  181  A    between atoms: _418  and  _420
REMARK  182  A    between atoms: _420  and  _421
REMARK  183  A    between atoms: _420  and  _423
REMARK  184  A    between atoms: _423  and  _424
REMARK  185  A    between atoms: _429  and  _431
REMARK  186  A    between atoms: _431  and  _432
REMARK  187  A    between atoms: _431  and  _434
REMARK  188  A    between atoms: _434  and  _435
REMARK  189  A    between atoms: _435  and  _436
REMARK  190  A    between atoms: _436  and  _437
REMARK  191  A    between atoms: _446  and  _448
REMARK  192  A    between atoms: _448  and  _449
REMARK  193  A    between atoms: _448  and  _451
REMARK  194  A    between atoms: _451  and  _452
REMARK  195  A    between atoms: _452  and  _453
REMARK  196  A    between atoms: _453  and  _454
REMARK  197  A    between atoms: _463  and  _465
REMARK  198  A    between atoms: _465  and  _466
REMARK  199  A    between atoms: _465  and  _468
REMARK  200  A    between atoms: _468  and  _469
REMARK  201  A    between atoms: _474  and  _476
REMARK  202  A    between atoms: _476  and  _477
REMARK  203  A    between atoms: _476  and  _479
REMARK  204  A    between atoms: _479  and  _480
REMARK  205  A    between atoms: _483  and  _485
REMARK  206  A    between atoms: _485  and  _486
REMARK  207  A    between atoms: _485  and  _488
REMARK  208  A    between atoms: _488  and  _489
REMARK  209  A    between atoms: _492  and  _494
REMARK  210  A    between atoms: _494  and  _495
REMARK  211  A    between atoms: _494  and  _497
REMARK  212  A    between atoms: _497  and  _498
REMARK  213  A    between atoms: _500  and  _502
REMARK  214  A    between atoms: _502  and  _503
REMARK  215  A    between atoms: _502  and  _505
REMARK  216  A    between atoms: _505  and  _506
REMARK  217  A    between atoms: _506  and  _507
REMARK  218  A    between atoms: _507  and  _508
REMARK  219  A    between atoms: _508  and  _509
REMARK  220  A    between atoms: _513  and  _515
REMARK  221  A    between atoms: _515  and  _516
REMARK  222  A    between atoms: _515  and  _518
REMARK  223  A    between atoms: _518  and  _519
REMARK  224  A    between atoms: _522  and  _524
REMARK  225  A    between atoms: _524  and  _525
REMARK  226  A    between atoms: _524  and  _527
REMARK  227  A    between atoms: _529  and  _531
REMARK  228  A    between atoms: _531  and  _532
REMARK  229  A    between atoms: _531  and  _534
REMARK  230  A    between atoms: _534  and  _535
REMARK  231  A    between atoms: _538  and  _540
REMARK  232  A    between atoms: _540  and  _541
REMARK  233  A    between atoms: _540  and  _543
REMARK  234  A    between atoms: _543  and  _544
REMARK  235  A    between atoms: _550  and  _552
REMARK  236  A    between atoms: _552  and  _553
REMARK  237  A    between atoms: _555  and  _557
REMARK  238  A    between atoms: _557  and  _558
REMARK  239  A    between atoms: _557  and  _560
REMARK  240  A    between atoms: _560  and  _561
REMARK  241  A    between atoms: _564  and  _566
REMARK  242  A    between atoms: _566  and  _567
REMARK  243  A    between atoms: _570  and  _572
REMARK  244  A    between atoms: _572  and  _573
REMARK  245  A    between atoms: _572  and  _575
REMARK  246  A    between atoms: _575  and  _576
REMARK  247  A    between atoms: _576  and  _577
REMARK  248  A    between atoms: _577  and  _578
REMARK                            x       y       z     vdW  Elec       q    Type
REMARK                         _______ _______ _______ _____ _____    ______ ____
ROOT
ATOM      1  O   HOH     1     -10.750   7.543 -15.282  0.00  0.00    +0.000 OA
ENDROOT
TORSDOF 0
REMARK  Name = ../refined-set-2016/4ase/4ase_pocket.pdb
REMARK  248 active torsions:
REMARK  status: ('A' for Active; 'I' for Inactive)
REMARK    1  A    between atoms: _1  and  _3
REMARK    2  A    between atoms: _3  and  _4
REMARK    3  A    between atoms: _3  and  _6
REMARK    4  A    between atoms: _6  and  _7
REMARK    5  A    between atoms: _10  and  _12
REMARK    6  A    between atoms: _12  and  _13
REMARK    7  A    between atoms: _12  and  _15
REMARK    8  A    between atoms: _15  and  _16
REMARK    9  A    between atoms: _16  and  _17
REMARK   10  A    between atoms: _17  and  _18
REMARK   11  A    between atoms: _18  and  _19
REMARK   12  A    between atoms: _24  and  _25
REMARK   13  A    between atoms: _30  and  _32
REMARK   14  A    between atoms: _32  and  _33
REMARK   15  A    between atoms: _32  and  _35
REMARK   16  A    between atoms: _35  and  _36
REMARK   17  A    between atoms: _39  and  _41
REMARK   18  A    between atoms: _41  and  _42
REMARK   19  A    between atoms: _44  and  _46
REMARK   20  A    between atoms: _46  and  _47
REMARK   21  A    between atoms: _46  and  _49
REMARK   22  A    between atoms: _49  and  _50
REMARK   23  A    between atoms: _50  and  _51
REMARK   24  A    between atoms: _51  and  _52
REMARK   25  A    between atoms: _61  and  _63
REMARK   26  A    between atoms: _63  and  _64
REMARK   27  A    between atoms: _63  and  _66
REMARK   28  A    between atoms: _66  and  _67
REMARK   29  A    between atoms: _67  and  _68
REMARK   30  A    between atoms: _73  and  _75
REMARK   31  A    between atoms: _75  and  _76
REMARK   32  A    between atoms: _75  and  _78
REMARK   33  A    between atoms: _81  and  _83
REMARK   34  A    between atoms: _83  and  _84
REMARK   35  A    between atoms: _83  and  _86
REMARK   36  A    between atoms: _86  and  _87
REMARK   37  A    between atoms: _90  and  _92
REMARK   38  A    between atoms: _92  and  _93
REMARK   39  A    between atoms: _92  and  _95
REMARK   40  A    between atoms: _95  and  _96
REMARK   41  A    between atoms: _96  and  _97
REMARK   42  A    between atoms: _100  and  _102
REMARK   43  A    between atoms: _102  and  _103
REMARK   44  A    between atoms: _102  and  _105
REMARK   45  A    between atoms: _105  and  _106
REMARK   46  A    between atoms: _109  and  _111
REMARK   47  A    between atoms: _111  and  _112
REMARK   48  A    between atoms: _111  and  _114
REMARK   49  A    between atoms: _117  and  _119
REMARK   50  A    between atoms: _119  and  _120
REMARK   51  A    between atoms: _123  and  _125
REMARK   52  A    between atoms: _125  and  _126
REMARK   53  A    between atoms: _125  and  _128
REMARK   54  A    between atoms: _131  and  _133
REMARK   55  A    between atoms: _133  and  _134
REMARK   56  A    between atoms: _133  and  _136
REMARK   57  A    between atoms: _136  and  _137
REMARK   58  A    between atoms: _137  and  _138
REMARK   59  A    between atoms: _138  and  _139
REMARK   60  A    between atoms: _139  and  _140
REMARK   61  A    between atoms: _144  and  _146
REMARK   62  A    between atoms: _146  and  _147
REMARK   63  A    between atoms: _146  and  _149
REMARK   64  A    between atoms: _149  and  _150
REMARK   65  A    between atoms: _150  and  _151
REMARK   66  A    between atoms: _153  and  _155
REMARK   67  A    between atoms: _155  and  _156
REMARK   68  A    between atoms: _155  and  _158
REMARK   69  A    between atoms: _158  and  _159
REMARK   70  A    between atoms: _162  and  _164
REMARK   71  A    between atoms: _164  and  _165
REMARK   72  A    between atoms: _164  and  _167
REMARK   73  A    between atoms: _167  and  _168
REMARK   74  A    between atoms: _170  and  _172
REMARK   75  A    between atoms: _172  and  _173
REMARK   76  A    between atoms: _172  and  _175
REMARK   77  A    between atoms: _175  and  _176
REMARK   78  A    between atoms: _176  and  _177
REMARK   79  A    between atoms: _180  and  _182
REMARK   80  A    between atoms: _182  and  _183
REMARK   81  A    between atoms: _182  and  _185
REMARK   82  A    between atoms: _185  and  _186
REMARK   83  A    between atoms: _189  and  _191
REMARK   84  A    between atoms: _191  and  _192
REMARK   85  A    between atoms: _191  and  _194
REMARK   86  A    between atoms: _194  and  _195
REMARK   87  A    between atoms: _198  and  _200
REMARK   88  A    between atoms: _200  and  _201
REMARK   89  A    between atoms: _200  and  _203
REMARK   90  A    between atoms: _203  and  _204
REMARK   91  A    between atoms: _207  and  _209
REMARK   92  A    between atoms: _209  and  _210
REMARK   93  A    between atoms: _209  and  _212
REMARK   94  A    between atoms: _212  and  _213
REMARK   95  A    between atoms: _216  and  _218
REMARK   96  A    between atoms: _218  and  _219
REMARK   97  A    between atoms: _218  and  _221
REMARK   98  A    between atoms: _221  and  _222
REMARK   99  A    between atoms: _225  and  _227
REMARK  100  A    between atoms: _227  and  _228
REMARK  101  A    between atoms: _227  and  _230
REMARK  102  A    between atoms: _233  and  _235
REMARK  103  A    between atoms: _235  and  _236
REMARK  104  A    between atoms: _235  and  _238
REMARK  105  A    between atoms: _241  and  _243
REMARK  106  A    between atoms: _243  and  _244
REMARK  107  A    between atoms: _243  and  _246
REMARK  108  A    between atoms: _246  and  _247
REMARK  109  A    between atoms: _252  and  _254
REMARK  110  A    between atoms: _254  and  _255
REMARK  111  A    between atoms: _254  and  _257
REMARK  112  A    between atoms: _257  and  _258
REMARK  113  A    between atoms: _261  and  _263
REMARK  114  A    between atoms: _263  and  _264
REMARK  115  A    between atoms: _263  and  _266
REMARK  116  A    between atoms: _266  and  _267
REMARK  117  A    between atoms: _270  and  _272
REMARK  118  A    between atoms: _272  and  _273
REMARK  119  A    between atoms: _275  and  _277
REMARK  120  A    between atoms: _277  and  _278
REMARK  121  A    between atoms: _277  and  _280
REMARK  122  A    between atoms: _280  and  _281
REMARK  123  A    between atoms: _281  and  _282
REMARK  124  A    between atoms: _284  and  _286
REMARK  125  A    between atoms: _286  and  _287
REMARK  126  A    between atoms: _286  and  _289
REMARK  127  A    between atoms: _292  and  _294
REMARK  128  A    between atoms: _294  and  _295
REMARK  129  A    between atoms: _294  and  _297
REMARK  130  A    between atoms: _297  and  _298
REMARK  131  A    between atoms: _301  and  _303
REMARK  132  A    between atoms: _303  and  _304
REMARK  133  A    between atoms: _303  and  _306
REMARK  134  A    between atoms: _309  and  _311
REMARK  135  A    between atoms: _311  and  _312
REMARK  136  A    between atoms: _311  and  _314
REMARK  137  A    between atoms: _314  and  _315
REMARK  138  A    between atoms: _315  and  _316
REMARK  139  A    between atoms: _319  and  _321
REMARK  140  A    between atoms: _321  and  _322
REMARK  141  A    between atoms: _321  and  _324
REMARK  142  A    between atoms: _324  and  _325
REMARK  143  A    between atoms: _331  and  _333
REMARK  144  A    between atoms: _333  and  _334
REMARK  145  A    between atoms: _333  and  _336
REMARK  146  A    between atoms: _338  and  _340
REMARK  147  A    between atoms: _340  and  _341
REMARK  148  A    between atoms: _340  and  _343
REMARK  149  A    between atoms: _343  and  _344
REMARK  150  A    between atoms: _344  and  _345
REMARK  151  A    between atoms: _345  and  _346
REMARK  152  A    between atoms: _346  and  _347
REMARK  153  A    between atoms: _351  and  _353
REMARK  154  A    between atoms: _353  and  _354
REMARK  155  A    between atoms: _353  and  _356
REMARK  156  A    between atoms: _356  and  _357
REMARK  157  A    between atoms: _363  and  _365
REMARK  158  A    between atoms: _365  and  _366
REMARK  159  A    between atoms: _368  and  _370
REMARK  160  A    between atoms: _370  and  _371
REMARK  161  A    between atoms: _370  and  _373
REMARK  162  A    between atoms: _373  and  _374
REMARK  163  A    between atoms: _379  and  _381
REMARK  164  A    between atoms: _381  and  _382
REMARK  165  A    between atoms: _384  and  _386
REMARK  166  A    between atoms: _386  and  _387
REMARK  167  A    between atoms: _386  and  _389
REMARK  168  A    between atoms: _389  and  _390
REMARK  169  A    between atoms: _390  and  _391
REMARK  170  A    between atoms: _393  and  _395
REMARK  171  A    between atoms: _395  and  _396
REMARK  172  A    between atoms: _395  and  _398
REMARK  173  A    between atoms: _398  and  _399
REMARK  174  A    between atoms: _402  and  _404
REMARK  175  A    between atoms: _404  and  _405
REMARK  176  A    between atoms: _404  and  _407
REMARK  177  A    between atoms: _409  and  _411
REMARK  178  A    between atoms: _411  and  _412
REMARK  179  A    between atoms: _411  and  _414
REMARK  180  A    between atoms: _414  and  _415
REMARK  181  A    between atoms: _418  and  _420
REMARK  182  A    between atoms: _420  and  _421
REMARK  183  A    between atoms: _420  and  _423
REMARK  184  A    between atoms: _423  and  _424
REMARK  185  A    between atoms: _429  and  _431
REMARK  186  A    between atoms: _431  and  _432
REMARK  187  A    between atoms: _431  and  _434
REMARK  188  A    between atoms: _434  and  _435
REMARK  189  A    between atoms: _435  and  _436
REMARK  190  A    between atoms: _436  and  _437
REMARK  191  A    between atoms: _446  and  _448
REMARK  192  A    between atoms: _448  and  _449
REMARK  193  A    between atoms: _448  and  _451
REMARK  194  A    between atoms: _451  and  _452
REMARK  195  A    between atoms: _452  and  _453
REMARK  196  A    between atoms: _453  and  _454
REMARK  197  A    between atoms: _463  and  _465
REMARK  198  A    between atoms: _465  and  _466
REMARK  199  A    between atoms: _465  and  _468
REMARK  200  A    between atoms: _468  and  _469
REMARK  201  A    between atoms: _474  and  _476
REMARK  202  A    between atoms: _476  and  _477
REMARK  203  A    between atoms: _476  and  _479
REMARK  204  A    between atoms: _479  and  _480
REMARK  205  A    between atoms: _483  and  _485
REMARK  206  A    between atoms: _485  and  _486
REMARK  207  A    between atoms: _485  and  _488
REMARK  208  A    between atoms: _488  and  _489
REMARK  209  A    between atoms: _492  and  _494
REMARK  210  A    between atoms: _494  and  _495
REMARK  211  A    between atoms: _494  and  _497
REMARK  212  A    between atoms: _497  and  _498
REMARK  213  A    between atoms: _500  and  _502
REMARK  214  A    between atoms: _502  and  _503
REMARK  215  A    between atoms: _502  and  _505
REMARK  216  A    between atoms: _505  and  _506
REMARK  217  A    between atoms: _506  and  _507
REMARK  218  A    between atoms: _507  and  _508
REMARK  219  A    between atoms: _508  and  _509
REMARK  220  A    between atoms: _513  and  _515
REMARK  221  A    between atoms: _515  and  _516
REMARK  222  A    between atoms: _515  and  _518
REMARK  223  A    between atoms: _518  and  _519
REMARK  224  A    between atoms: _522  and  _524
REMARK  225  A    between atoms: _524  and  _525
REMARK  226  A    between atoms: _524  and  _527
REMARK  227  A    between atoms: _529  and  _531
REMARK  228  A    between atoms: _531  and  _532
REMARK  229  A    between atoms: _531  and  _534
REMARK  230  A    between atoms: _534  and  _535
REMARK  231  A    between atoms: _538  and  _540
REMARK  232  A    between atoms: _540  and  _541
REMARK  233  A    between atoms: _540  and  _543
REMARK  234  A    between atoms: _543  and  _544
REMARK  235  A    between atoms: _550  and  _552
REMARK  236  A    between atoms: _552  and  _553
REMARK  237  A    between atoms: _555  and  _557
REMARK  238  A    between atoms: _557  and  _558
REMARK  239  A    between atoms: _557  and  _560
REMARK  240  A    between atoms: _560  and  _561
REMARK  241  A    between atoms: _564  and  _566
REMARK  242  A    between atoms: _566  and  _567
REMARK  243  A    between atoms: _570  and  _572
REMARK  244  A    between atoms: _572  and  _573
REMARK  245  A    between atoms: _572  and  _575
REMARK  246  A    between atoms: _575  and  _576
REMARK  247  A    between atoms: _576  and  _577
REMARK  248  A    between atoms: _577  and  _578
REMARK                            x       y       z     vdW  Elec       q    Type
REMARK                         _______ _______ _______ _____ _____    ______ ____
ROOT
ATOM      1  O   HOH     1     -29.474  -6.385  -3.029  0.00  0.00    +0.000 OA
ENDROOT
TORSDOF 0
REMARK  Name = ../refined-set-2016/4ase/4ase_pocket.pdb
REMARK  248 active torsions:
REMARK  status: ('A' for Active; 'I' for Inactive)
REMARK    1  A    between atoms: _1  and  _3
REMARK    2  A    between atoms: _3  and  _4
REMARK    3  A    between atoms: _3  and  _6
REMARK    4  A    between atoms: _6  and  _7
REMARK    5  A    between atoms: _10  and  _12
REMARK    6  A    between atoms: _12  and  _13
REMARK    7  A    between atoms: _12  and  _15
REMARK    8  A    between atoms: _15  and  _16
REMARK    9  A    between atoms: _16  and  _17
REMARK   10  A    between atoms: _17  and  _18
REMARK   11  A    between atoms: _18  and  _19
REMARK   12  A    between atoms: _24  and  _25
REMARK   13  A    between atoms: _30  and  _32
REMARK   14  A    between atoms: _32  and  _33
REMARK   15  A    between atoms: _32  and  _35
REMARK   16  A    between atoms: _35  and  _36
REMARK   17  A    between atoms: _39  and  _41
REMARK   18  A    between atoms: _41  and  _42
REMARK   19  A    between atoms: _44  and  _46
REMARK   20  A    between atoms: _46  and  _47
REMARK   21  A    between atoms: _46  and  _49
REMARK   22  A    between atoms: _49  and  _50
REMARK   23  A    between atoms: _50  and  _51
REMARK   24  A    between atoms: _51  and  _52
REMARK   25  A    between atoms: _61  and  _63
REMARK   26  A    between atoms: _63  and  _64
REMARK   27  A    between atoms: _63  and  _66
REMARK   28  A    between atoms: _66  and  _67
REMARK   29  A    between atoms: _67  and  _68
REMARK   30  A    between atoms: _73  and  _75
REMARK   31  A    between atoms: _75  and  _76
REMARK   32  A    between atoms: _75  and  _78
REMARK   33  A    between atoms: _81  and  _83
REMARK   34  A    between atoms: _83  and  _84
REMARK   35  A    between atoms: _83  and  _86
REMARK   36  A    between atoms: _86  and  _87
REMARK   37  A    between atoms: _90  and  _92
REMARK   38  A    between atoms: _92  and  _93
REMARK   39  A    between atoms: _92  and  _95
REMARK   40  A    between atoms: _95  and  _96
REMARK   41  A    between atoms: _96  and  _97
REMARK   42  A    between atoms: _100  and  _102
REMARK   43  A    between atoms: _102  and  _103
REMARK   44  A    between atoms: _102  and  _105
REMARK   45  A    between atoms: _105  and  _106
REMARK   46  A    between atoms: _109  and  _111
REMARK   47  A    between atoms: _111  and  _112
REMARK   48  A    between atoms: _111  and  _114
REMARK   49  A    between atoms: _117  and  _119
REMARK   50  A    between atoms: _119  and  _120
REMARK   51  A    between atoms: _123  and  _125
REMARK   52  A    between atoms: _125  and  _126
REMARK   53  A    between atoms: _125  and  _128
REMARK   54  A    between atoms: _131  and  _133
REMARK   55  A    between atoms: _133  and  _134
REMARK   56  A    between atoms: _133  and  _136
REMARK   57  A    between atoms: _136  and  _137
REMARK   58  A    between atoms: _137  and  _138
REMARK   59  A    between atoms: _138  and  _139
REMARK   60  A    between atoms: _139  and  _140
REMARK   61  A    between atoms: _144  and  _146
REMARK   62  A    between atoms: _146  and  _147
REMARK   63  A    between atoms: _146  and  _149
REMARK   64  A    between atoms: _149  and  _150
REMARK   65  A    between atoms: _150  and  _151
REMARK   66  A    between atoms: _153  and  _155
REMARK   67  A    between atoms: _155  and  _156
REMARK   68  A    between atoms: _155  and  _158
REMARK   69  A    between atoms: _158  and  _159
REMARK   70  A    between atoms: _162  and  _164
REMARK   71  A    between atoms: _164  and  _165
REMARK   72  A    between atoms: _164  and  _167
REMARK   73  A    between atoms: _167  and  _168
REMARK   74  A    between atoms: _170  and  _172
REMARK   75  A    between atoms: _172  and  _173
REMARK   76  A    between atoms: _172  and  _175
REMARK   77  A    between atoms: _175  and  _176
REMARK   78  A    between atoms: _176  and  _177
REMARK   79  A    between atoms: _180  and  _182
REMARK   80  A    between atoms: _182  and  _183
REMARK   81  A    between atoms: _182  and  _185
REMARK   82  A    between atoms: _185  and  _186
REMARK   83  A    between atoms: _189  and  _191
REMARK   84  A    between atoms: _191  and  _192
REMARK   85  A    between atoms: _191  and  _194
REMARK   86  A    between atoms: _194  and  _195
REMARK   87  A    between atoms: _198  and  _200
REMARK   88  A    between atoms: _200  and  _201
REMARK   89  A    between atoms: _200  and  _203
REMARK   90  A    between atoms: _203  and  _204
REMARK   91  A    between atoms: _207  and  _209
REMARK   92  A    between atoms: _209  and  _210
REMARK   93  A    between atoms: _209  and  _212
REMARK   94  A    between atoms: _212  and  _213
REMARK   95  A    between atoms: _216  and  _218
REMARK   96  A    between atoms: _218  and  _219
REMARK   97  A    between atoms: _218  and  _221
REMARK   98  A    between atoms: _221  and  _222
REMARK   99  A    between atoms: _225  and  _227
REMARK  100  A    between atoms: _227  and  _228
REMARK  101  A    between atoms: _227  and  _230
REMARK  102  A    between atoms: _233  and  _235
REMARK  103  A    between atoms: _235  and  _236
REMARK  104  A    between atoms: _235  and  _238
REMARK  105  A    between atoms: _241  and  _243
REMARK  106  A    between atoms: _243  and  _244
REMARK  107  A    between atoms: _243  and  _246
REMARK  108  A    between atoms: _246  and  _247
REMARK  109  A    between atoms: _252  and  _254
REMARK  110  A    between atoms: _254  and  _255
REMARK  111  A    between atoms: _254  and  _257
REMARK  112  A    between atoms: _257  and  _258
REMARK  113  A    between atoms: _261  and  _263
REMARK  114  A    between atoms: _263  and  _264
REMARK  115  A    between atoms: _263  and  _266
REMARK  116  A    between atoms: _266  and  _267
REMARK  117  A    between atoms: _270  and  _272
REMARK  118  A    between atoms: _272  and  _273
REMARK  119  A    between atoms: _275  and  _277
REMARK  120  A    between atoms: _277  and  _278
REMARK  121  A    between atoms: _277  and  _280
REMARK  122  A    between atoms: _280  and  _281
REMARK  123  A    between atoms: _281  and  _282
REMARK  124  A    between atoms: _284  and  _286
REMARK  125  A    between atoms: _286  and  _287
REMARK  126  A    between atoms: _286  and  _289
REMARK  127  A    between atoms: _292  and  _294
REMARK  128  A    between atoms: _294  and  _295
REMARK  129  A    between atoms: _294  and  _297
REMARK  130  A    between atoms: _297  and  _298
REMARK  131  A    between atoms: _301  and  _303
REMARK  132  A    between atoms: _303  and  _304
REMARK  133  A    between atoms: _303  and  _306
REMARK  134  A    between atoms: _309  and  _311
REMARK  135  A    between atoms: _311  and  _312
REMARK  136  A    between atoms: _311  and  _314
REMARK  137  A    between atoms: _314  and  _315
REMARK  138  A    between atoms: _315  and  _316
REMARK  139  A    between atoms: _319  and  _321
REMARK  140  A    between atoms: _321  and  _322
REMARK  141  A    between atoms: _321  and  _324
REMARK  142  A    between atoms: _324  and  _325
REMARK  143  A    between atoms: _331  and  _333
REMARK  144  A    between atoms: _333  and  _334
REMARK  145  A    between atoms: _333  and  _336
REMARK  146  A    between atoms: _338  and  _340
REMARK  147  A    between atoms: _340  and  _341
REMARK  148  A    between atoms: _340  and  _343
REMARK  149  A    between atoms: _343  and  _344
REMARK  150  A    between atoms: _344  and  _345
REMARK  151  A    between atoms: _345  and  _346
REMARK  152  A    between atoms: _346  and  _347
REMARK  153  A    between atoms: _351  and  _353
REMARK  154  A    between atoms: _353  and  _354
REMARK  155  A    between atoms: _353  and  _356
REMARK  156  A    between atoms: _356  and  _357
REMARK  157  A    between atoms: _363  and  _365
REMARK  158  A    between atoms: _365  and  _366
REMARK  159  A    between atoms: _368  and  _370
REMARK  160  A    between atoms: _370  and  _371
REMARK  161  A    between atoms: _370  and  _373
REMARK  162  A    between atoms: _373  and  _374
REMARK  163  A    between atoms: _379  and  _381
REMARK  164  A    between atoms: _381  and  _382
REMARK  165  A    between atoms: _384  and  _386
REMARK  166  A    between atoms: _386  and  _387
REMARK  167  A    between atoms: _386  and  _389
REMARK  168  A    between atoms: _389  and  _390
REMARK  169  A    between atoms: _390  and  _391
REMARK  170  A    between atoms: _393  and  _395
REMARK  171  A    between atoms: _395  and  _396
REMARK  172  A    between atoms: _395  and  _398
REMARK  173  A    between atoms: _398  and  _399
REMARK  174  A    between atoms: _402  and  _404
REMARK  175  A    between atoms: _404  and  _405
REMARK  176  A    between atoms: _404  and  _407
REMARK  177  A    between atoms: _409  and  _411
REMARK  178  A    between atoms: _411  and  _412
REMARK  179  A    between atoms: _411  and  _414
REMARK  180  A    between atoms: _414  and  _415
REMARK  181  A    between atoms: _418  and  _420
REMARK  182  A    between atoms: _420  and  _421
REMARK  183  A    between atoms: _420  and  _423
REMARK  184  A    between atoms: _423  and  _424
REMARK  185  A    between atoms: _429  and  _431
REMARK  186  A    between atoms: _431  and  _432
REMARK  187  A    between atoms: _431  and  _434
REMARK  188  A    between atoms: _434  and  _435
REMARK  189  A    between atoms: _435  and  _436
REMARK  190  A    between atoms: _436  and  _437
REMARK  191  A    between atoms: _446  and  _448
REMARK  192  A    between atoms: _448  and  _449
REMARK  193  A    between atoms: _448  and  _451
REMARK  194  A    between atoms: _451  and  _452
REMARK  195  A    between atoms: _452  and  _453
REMARK  196  A    between atoms: _453  and  _454
REMARK  197  A    between atoms: _463  and  _465
REMARK  198  A    between atoms: _465  and  _466
REMARK  199  A    between atoms: _465  and  _468
REMARK  200  A    between atoms: _468  and  _469
REMARK  201  A    between atoms: _474  and  _476
REMARK  202  A    between atoms: _476  and  _477
REMARK  203  A    between atoms: _476  and  _479
REMARK  204  A    between atoms: _479  and  _480
REMARK  205  A    between atoms: _483  and  _485
REMARK  206  A    between atoms: _485  and  _486
REMARK  207  A    between atoms: _485  and  _488
REMARK  208  A    between atoms: _488  and  _489
REMARK  209  A    between atoms: _492  and  _494
REMARK  210  A    between atoms: _494  and  _495
REMARK  211  A    between atoms: _494  and  _497
REMARK  212  A    between atoms: _497  and  _498
REMARK  213  A    between atoms: _500  and  _502
REMARK  214  A    between atoms: _502  and  _503
REMARK  215  A    between atoms: _502  and  _505
REMARK  216  A    between atoms: _505  and  _506
REMARK  217  A    between atoms: _506  and  _507
REMARK  218  A    between atoms: _507  and  _508
REMARK  219  A    between atoms: _508  and  _509
REMARK  220  A    between atoms: _513  and  _515
REMARK  221  A    between atoms: _515  and  _516
REMARK  222  A    between atoms: _515  and  _518
REMARK  223  A    between atoms: _518  and  _519
REMARK  224  A    between atoms: _522  and  _524
REMARK  225  A    between atoms: _524  and  _525
REMARK  226  A    between atoms: _524  and  _527
REMARK  227  A    between atoms: _529  and  _531
REMARK  228  A    between atoms: _531  and  _532
REMARK  229  A    between atoms: _531  and  _534
REMARK  230  A    between atoms: _534  and  _535
REMARK  231  A    between atoms: _538  and  _540
REMARK  232  A    between atoms: _540  and  _541
REMARK  233  A    between atoms: _540  and  _543
REMARK  234  A    between atoms: _543  and  _544
REMARK  235  A    between atoms: _550  and  _552
REMARK  236  A    between atoms: _552  and  _553
REMARK  237  A    between atoms: _555  and  _557
REMARK  238  A    between atoms: _557  and  _558
REMARK  239  A    between atoms: _557  and  _560
REMARK  240  A    between atoms: _560  and  _561
REMARK  241  A    between atoms: _564  and  _566
REMARK  242  A    between atoms: _566  and  _567
REMARK  243  A    between atoms: _570  and  _572
REMARK  244  A    between atoms: _572  and  _573
REMARK  245  A    between atoms: _572  and  _575
REMARK  246  A    between atoms: _575  and  _576
REMARK  247  A    between atoms: _576  and  _577
REMARK  248  A    between atoms: _577  and  _578
REMARK                            x       y       z     vdW  Elec       q    Type
REMARK                         _______ _______ _______ _____ _____    ______ ____
ROOT
ATOM      1  O   HOH     1     -31.688  -6.676  -0.498  0.00  0.00    +0.000 OA
ENDROOT
TORSDOF 0
REMARK  Name = ../refined-set-2016/4ase/4ase_pocket.pdb
REMARK  248 active torsions:
REMARK  status: ('A' for Active; 'I' for Inactive)
REMARK    1  A    between atoms: _1  and  _3
REMARK    2  A    between atoms: _3  and  _4
REMARK    3  A    between atoms: _3  and  _6
REMARK    4  A    between atoms: _6  and  _7
REMARK    5  A    between atoms: _10  and  _12
REMARK    6  A    between atoms: _12  and  _13
REMARK    7  A    between atoms: _12  and  _15
REMARK    8  A    between atoms: _15  and  _16
REMARK    9  A    between atoms: _16  and  _17
REMARK   10  A    between atoms: _17  and  _18
REMARK   11  A    between atoms: _18  and  _19
REMARK   12  A    between atoms: _24  and  _25
REMARK   13  A    between atoms: _30  and  _32
REMARK   14  A    between atoms: _32  and  _33
REMARK   15  A    between atoms: _32  and  _35
REMARK   16  A    between atoms: _35  and  _36
REMARK   17  A    between atoms: _39  and  _41
REMARK   18  A    between atoms: _41  and  _42
REMARK   19  A    between atoms: _44  and  _46
REMARK   20  A    between atoms: _46  and  _47
REMARK   21  A    between atoms: _46  and  _49
REMARK   22  A    between atoms: _49  and  _50
REMARK   23  A    between atoms: _50  and  _51
REMARK   24  A    between atoms: _51  and  _52
REMARK   25  A    between atoms: _61  and  _63
REMARK   26  A    between atoms: _63  and  _64
REMARK   27  A    between atoms: _63  and  _66
REMARK   28  A    between atoms: _66  and  _67
REMARK   29  A    between atoms: _67  and  _68
REMARK   30  A    between atoms: _73  and  _75
REMARK   31  A    between atoms: _75  and  _76
REMARK   32  A    between atoms: _75  and  _78
REMARK   33  A    between atoms: _81  and  _83
REMARK   34  A    between atoms: _83  and  _84
REMARK   35  A    between atoms: _83  and  _86
REMARK   36  A    between atoms: _86  and  _87
REMARK   37  A    between atoms: _90  and  _92
REMARK   38  A    between atoms: _92  and  _93
REMARK   39  A    between atoms: _92  and  _95
REMARK   40  A    between atoms: _95  and  _96
REMARK   41  A    between atoms: _96  and  _97
REMARK   42  A    between atoms: _100  and  _102
REMARK   43  A    between atoms: _102  and  _103
REMARK   44  A    between atoms: _102  and  _105
REMARK   45  A    between atoms: _105  and  _106
REMARK   46  A    between atoms: _109  and  _111
REMARK   47  A    between atoms: _111  and  _112
REMARK   48  A    between atoms: _111  and  _114
REMARK   49  A    between atoms: _117  and  _119
REMARK   50  A    between atoms: _119  and  _120
REMARK   51  A    between atoms: _123  and  _125
REMARK   52  A    between atoms: _125  and  _126
REMARK   53  A    between atoms: _125  and  _128
REMARK   54  A    between atoms: _131  and  _133
REMARK   55  A    between atoms: _133  and  _134
REMARK   56  A    between atoms: _133  and  _136
REMARK   57  A    between atoms: _136  and  _137
REMARK   58  A    between atoms: _137  and  _138
REMARK   59  A    between atoms: _138  and  _139
REMARK   60  A    between atoms: _139  and  _140
REMARK   61  A    between atoms: _144  and  _146
REMARK   62  A    between atoms: _146  and  _147
REMARK   63  A    between atoms: _146  and  _149
REMARK   64  A    between atoms: _149  and  _150
REMARK   65  A    between atoms: _150  and  _151
REMARK   66  A    between atoms: _153  and  _155
REMARK   67  A    between atoms: _155  and  _156
REMARK   68  A    between atoms: _155  and  _158
REMARK   69  A    between atoms: _158  and  _159
REMARK   70  A    between atoms: _162  and  _164
REMARK   71  A    between atoms: _164  and  _165
REMARK   72  A    between atoms: _164  and  _167
REMARK   73  A    between atoms: _167  and  _168
REMARK   74  A    between atoms: _170  and  _172
REMARK   75  A    between atoms: _172  and  _173
REMARK   76  A    between atoms: _172  and  _175
REMARK   77  A    between atoms: _175  and  _176
REMARK   78  A    between atoms: _176  and  _177
REMARK   79  A    between atoms: _180  and  _182
REMARK   80  A    between atoms: _182  and  _183
REMARK   81  A    between atoms: _182  and  _185
REMARK   82  A    between atoms: _185  and  _186
REMARK   83  A    between atoms: _189  and  _191
REMARK   84  A    between atoms: _191  and  _192
REMARK   85  A    between atoms: _191  and  _194
REMARK   86  A    between atoms: _194  and  _195
REMARK   87  A    between atoms: _198  and  _200
REMARK   88  A    between atoms: _200  and  _201
REMARK   89  A    between atoms: _200  and  _203
REMARK   90  A    between atoms: _203  and  _204
REMARK   91  A    between atoms: _207  and  _209
REMARK   92  A    between atoms: _209  and  _210
REMARK   93  A    between atoms: _209  and  _212
REMARK   94  A    between atoms: _212  and  _213
REMARK   95  A    between atoms: _216  and  _218
REMARK   96  A    between atoms: _218  and  _219
REMARK   97  A    between atoms: _218  and  _221
REMARK   98  A    between atoms: _221  and  _222
REMARK   99  A    between atoms: _225  and  _227
REMARK  100  A    between atoms: _227  and  _228
REMARK  101  A    between atoms: _227  and  _230
REMARK  102  A    between atoms: _233  and  _235
REMARK  103  A    between atoms: _235  and  _236
REMARK  104  A    between atoms: _235  and  _238
REMARK  105  A    between atoms: _241  and  _243
REMARK  106  A    between atoms: _243  and  _244
REMARK  107  A    between atoms: _243  and  _246
REMARK  108  A    between atoms: _246  and  _247
REMARK  109  A    between atoms: _252  and  _254
REMARK  110  A    between atoms: _254  and  _255
REMARK  111  A    between atoms: _254  and  _257
REMARK  112  A    between atoms: _257  and  _258
REMARK  113  A    between atoms: _261  and  _263
REMARK  114  A    between atoms: _263  and  _264
REMARK  115  A    between atoms: _263  and  _266
REMARK  116  A    between atoms: _266  and  _267
REMARK  117  A    between atoms: _270  and  _272
REMARK  118  A    between atoms: _272  and  _273
REMARK  119  A    between atoms: _275  and  _277
REMARK  120  A    between atoms: _277  and  _278
REMARK  121  A    between atoms: _277  and  _280
REMARK  122  A    between atoms: _280  and  _281
REMARK  123  A    between atoms: _281  and  _282
REMARK  124  A    between atoms: _284  and  _286
REMARK  125  A    between atoms: _286  and  _287
REMARK  126  A    between atoms: _286  and  _289
REMARK  127  A    between atoms: _292  and  _294
REMARK  128  A    between atoms: _294  and  _295
REMARK  129  A    between atoms: _294  and  _297
REMARK  130  A    between atoms: _297  and  _298
REMARK  131  A    between atoms: _301  and  _303
REMARK  132  A    between atoms: _303  and  _304
REMARK  133  A    between atoms: _303  and  _306
REMARK  134  A    between atoms: _309  and  _311
REMARK  135  A    between atoms: _311  and  _312
REMARK  136  A    between atoms: _311  and  _314
REMARK  137  A    between atoms: _314  and  _315
REMARK  138  A    between atoms: _315  and  _316
REMARK  139  A    between atoms: _319  and  _321
REMARK  140  A    between atoms: _321  and  _322
REMARK  141  A    between atoms: _321  and  _324
REMARK  142  A    between atoms: _324  and  _325
REMARK  143  A    between atoms: _331  and  _333
REMARK  144  A    between atoms: _333  and  _334
REMARK  145  A    between atoms: _333  and  _336
REMARK  146  A    between atoms: _338  and  _340
REMARK  147  A    between atoms: _340  and  _341
REMARK  148  A    between atoms: _340  and  _343
REMARK  149  A    between atoms: _343  and  _344
REMARK  150  A    between atoms: _344  and  _345
REMARK  151  A    between atoms: _345  and  _346
REMARK  152  A    between atoms: _346  and  _347
REMARK  153  A    between atoms: _351  and  _353
REMARK  154  A    between atoms: _353  and  _354
REMARK  155  A    between atoms: _353  and  _356
REMARK  156  A    between atoms: _356  and  _357
REMARK  157  A    between atoms: _363  and  _365
REMARK  158  A    between atoms: _365  and  _366
REMARK  159  A    between atoms: _368  and  _370
REMARK  160  A    between atoms: _370  and  _371
REMARK  161  A    between atoms: _370  and  _373
REMARK  162  A    between atoms: _373  and  _374
REMARK  163  A    between atoms: _379  and  _381
REMARK  164  A    between atoms: _381  and  _382
REMARK  165  A    between atoms: _384  and  _386
REMARK  166  A    between atoms: _386  and  _387
REMARK  167  A    between atoms: _386  and  _389
REMARK  168  A    between atoms: _389  and  _390
REMARK  169  A    between atoms: _390  and  _391
REMARK  170  A    between atoms: _393  and  _395
REMARK  171  A    between atoms: _395  and  _396
REMARK  172  A    between atoms: _395  and  _398
REMARK  173  A    between atoms: _398  and  _399
REMARK  174  A    between atoms: _402  and  _404
REMARK  175  A    between atoms: _404  and  _405
REMARK  176  A    between atoms: _404  and  _407
REMARK  177  A    between atoms: _409  and  _411
REMARK  178  A    between atoms: _411  and  _412
REMARK  179  A    between atoms: _411  and  _414
REMARK  180  A    between atoms: _414  and  _415
REMARK  181  A    between atoms: _418  and  _420
REMARK  182  A    between atoms: _420  and  _421
REMARK  183  A    between atoms: _420  and  _423
REMARK  184  A    between atoms: _423  and  _424
REMARK  185  A    between atoms: _429  and  _431
REMARK  186  A    between atoms: _431  and  _432
REMARK  187  A    between atoms: _431  and  _434
REMARK  188  A    between atoms: _434  and  _435
REMARK  189  A    between atoms: _435  and  _436
REMARK  190  A    between atoms: _436  and  _437
REMARK  191  A    between atoms: _446  and  _448
REMARK  192  A    between atoms: _448  and  _449
REMARK  193  A    between atoms: _448  and  _451
REMARK  194  A    between atoms: _451  and  _452
REMARK  195  A    between atoms: _452  and  _453
REMARK  196  A    between atoms: _453  and  _454
REMARK  197  A    between atoms: _463  and  _465
REMARK  198  A    between atoms: _465  and  _466
REMARK  199  A    between atoms: _465  and  _468
REMARK  200  A    between atoms: _468  and  _469
REMARK  201  A    between atoms: _474  and  _476
REMARK  202  A    between atoms: _476  and  _477
REMARK  203  A    between atoms: _476  and  _479
REMARK  204  A    between atoms: _479  and  _480
REMARK  205  A    between atoms: _483  and  _485
REMARK  206  A    between atoms: _485  and  _486
REMARK  207  A    between atoms: _485  and  _488
REMARK  208  A    between atoms: _488  and  _489
REMARK  209  A    between atoms: _492  and  _494
REMARK  210  A    between atoms: _494  and  _495
REMARK  211  A    between atoms: _494  and  _497
REMARK  212  A    between atoms: _497  and  _498
REMARK  213  A    between atoms: _500  and  _502
REMARK  214  A    between atoms: _502  and  _503
REMARK  215  A    between atoms: _502  and  _505
REMARK  216  A    between atoms: _505  and  _506
REMARK  217  A    between atoms: _506  and  _507
REMARK  218  A    between atoms: _507  and  _508
REMARK  219  A    between atoms: _508  and  _509
REMARK  220  A    between atoms: _513  and  _515
REMARK  221  A    between atoms: _515  and  _516
REMARK  222  A    between atoms: _515  and  _518
REMARK  223  A    between atoms: _518  and  _519
REMARK  224  A    between atoms: _522  and  _524
REMARK  225  A    between atoms: _524  and  _525
REMARK  226  A    between atoms: _524  and  _527
REMARK  227  A    between atoms: _529  and  _531
REMARK  228  A    between atoms: _531  and  _532
REMARK  229  A    between atoms: _531  and  _534
REMARK  230  A    between atoms: _534  and  _535
REMARK  231  A    between atoms: _538  and  _540
REMARK  232  A    between atoms: _540  and  _541
REMARK  233  A    between atoms: _540  and  _543
REMARK  234  A    between atoms: _543  and  _544
REMARK  235  A    between atoms: _550  and  _552
REMARK  236  A    between atoms: _552  and  _553
REMARK  237  A    between atoms: _555  and  _557
REMARK  238  A    between atoms: _557  and  _558
REMARK  239  A    between atoms: _557  and  _560
REMARK  240  A    between atoms: _560  and  _561
REMARK  241  A    between atoms: _564  and  _566
REMARK  242  A    between atoms: _566  and  _567
REMARK  243  A    between atoms: _570  and  _572
REMARK  244  A    between atoms: _572  and  _573
REMARK  245  A    between atoms: _572  and  _575
REMARK  246  A    between atoms: _575  and  _576
REMARK  247  A    between atoms: _576  and  _577
REMARK  248  A    between atoms: _577  and  _578
REMARK                            x       y       z     vdW  Elec       q    Type
REMARK                         _______ _______ _______ _____ _____    ______ ____
ROOT
ATOM      1  O   HOH     1     -14.971   6.067 -20.851  0.00  0.00    +0.000 OA
ENDROOT
TORSDOF 0
REMARK  Name = ../refined-set-2016/4ase/4ase_pocket.pdb
REMARK  248 active torsions:
REMARK  status: ('A' for Active; 'I' for Inactive)
REMARK    1  A    between atoms: _1  and  _3
REMARK    2  A    between atoms: _3  and  _4
REMARK    3  A    between atoms: _3  and  _6
REMARK    4  A    between atoms: _6  and  _7
REMARK    5  A    between atoms: _10  and  _12
REMARK    6  A    between atoms: _12  and  _13
REMARK    7  A    between atoms: _12  and  _15
REMARK    8  A    between atoms: _15  and  _16
REMARK    9  A    between atoms: _16  and  _17
REMARK   10  A    between atoms: _17  and  _18
REMARK   11  A    between atoms: _18  and  _19
REMARK   12  A    between atoms: _24  and  _25
REMARK   13  A    between atoms: _30  and  _32
REMARK   14  A    between atoms: _32  and  _33
REMARK   15  A    between atoms: _32  and  _35
REMARK   16  A    between atoms: _35  and  _36
REMARK   17  A    between atoms: _39  and  _41
REMARK   18  A    between atoms: _41  and  _42
REMARK   19  A    between atoms: _44  and  _46
REMARK   20  A    between atoms: _46  and  _47
REMARK   21  A    between atoms: _46  and  _49
REMARK   22  A    between atoms: _49  and  _50
REMARK   23  A    between atoms: _50  and  _51
REMARK   24  A    between atoms: _51  and  _52
REMARK   25  A    between atoms: _61  and  _63
REMARK   26  A    between atoms: _63  and  _64
REMARK   27  A    between atoms: _63  and  _66
REMARK   28  A    between atoms: _66  and  _67
REMARK   29  A    between atoms: _67  and  _68
REMARK   30  A    between atoms: _73  and  _75
REMARK   31  A    between atoms: _75  and  _76
REMARK   32  A    between atoms: _75  and  _78
REMARK   33  A    between atoms: _81  and  _83
REMARK   34  A    between atoms: _83  and  _84
REMARK   35  A    between atoms: _83  and  _86
REMARK   36  A    between atoms: _86  and  _87
REMARK   37  A    between atoms: _90  and  _92
REMARK   38  A    between atoms: _92  and  _93
REMARK   39  A    between atoms: _92  and  _95
REMARK   40  A    between atoms: _95  and  _96
REMARK   41  A    between atoms: _96  and  _97
REMARK   42  A    between atoms: _100  and  _102
REMARK   43  A    between atoms: _102  and  _103
REMARK   44  A    between atoms: _102  and  _105
REMARK   45  A    between atoms: _105  and  _106
REMARK   46  A    between atoms: _109  and  _111
REMARK   47  A    between atoms: _111  and  _112
REMARK   48  A    between atoms: _111  and  _114
REMARK   49  A    between atoms: _117  and  _119
REMARK   50  A    between atoms: _119  and  _120
REMARK   51  A    between atoms: _123  and  _125
REMARK   52  A    between atoms: _125  and  _126
REMARK   53  A    between atoms: _125  and  _128
REMARK   54  A    between atoms: _131  and  _133
REMARK   55  A    between atoms: _133  and  _134
REMARK   56  A    between atoms: _133  and  _136
REMARK   57  A    between atoms: _136  and  _137
REMARK   58  A    between atoms: _137  and  _138
REMARK   59  A    between atoms: _138  and  _139
REMARK   60  A    between atoms: _139  and  _140
REMARK   61  A    between atoms: _144  and  _146
REMARK   62  A    between atoms: _146  and  _147
REMARK   63  A    between atoms: _146  and  _149
REMARK   64  A    between atoms: _149  and  _150
REMARK   65  A    between atoms: _150  and  _151
REMARK   66  A    between atoms: _153  and  _155
REMARK   67  A    between atoms: _155  and  _156
REMARK   68  A    between atoms: _155  and  _158
REMARK   69  A    between atoms: _158  and  _159
REMARK   70  A    between atoms: _162  and  _164
REMARK   71  A    between atoms: _164  and  _165
REMARK   72  A    between atoms: _164  and  _167
REMARK   73  A    between atoms: _167  and  _168
REMARK   74  A    between atoms: _170  and  _172
REMARK   75  A    between atoms: _172  and  _173
REMARK   76  A    between atoms: _172  and  _175
REMARK   77  A    between atoms: _175  and  _176
REMARK   78  A    between atoms: _176  and  _177
REMARK   79  A    between atoms: _180  and  _182
REMARK   80  A    between atoms: _182  and  _183
REMARK   81  A    between atoms: _182  and  _185
REMARK   82  A    between atoms: _185  and  _186
REMARK   83  A    between atoms: _189  and  _191
REMARK   84  A    between atoms: _191  and  _192
REMARK   85  A    between atoms: _191  and  _194
REMARK   86  A    between atoms: _194  and  _195
REMARK   87  A    between atoms: _198  and  _200
REMARK   88  A    between atoms: _200  and  _201
REMARK   89  A    between atoms: _200  and  _203
REMARK   90  A    between atoms: _203  and  _204
REMARK   91  A    between atoms: _207  and  _209
REMARK   92  A    between atoms: _209  and  _210
REMARK   93  A    between atoms: _209  and  _212
REMARK   94  A    between atoms: _212  and  _213
REMARK   95  A    between atoms: _216  and  _218
REMARK   96  A    between atoms: _218  and  _219
REMARK   97  A    between atoms: _218  and  _221
REMARK   98  A    between atoms: _221  and  _222
REMARK   99  A    between atoms: _225  and  _227
REMARK  100  A    between atoms: _227  and  _228
REMARK  101  A    between atoms: _227  and  _230
REMARK  102  A    between atoms: _233  and  _235
REMARK  103  A    between atoms: _235  and  _236
REMARK  104  A    between atoms: _235  and  _238
REMARK  105  A    between atoms: _241  and  _243
REMARK  106  A    between atoms: _243  and  _244
REMARK  107  A    between atoms: _243  and  _246
REMARK  108  A    between atoms: _246  and  _247
REMARK  109  A    between atoms: _252  and  _254
REMARK  110  A    between atoms: _254  and  _255
REMARK  111  A    between atoms: _254  and  _257
REMARK  112  A    between atoms: _257  and  _258
REMARK  113  A    between atoms: _261  and  _263
REMARK  114  A    between atoms: _263  and  _264
REMARK  115  A    between atoms: _263  and  _266
REMARK  116  A    between atoms: _266  and  _267
REMARK  117  A    between atoms: _270  and  _272
REMARK  118  A    between atoms: _272  and  _273
REMARK  119  A    between atoms: _275  and  _277
REMARK  120  A    between atoms: _277  and  _278
REMARK  121  A    between atoms: _277  and  _280
REMARK  122  A    between atoms: _280  and  _281
REMARK  123  A    between atoms: _281  and  _282
REMARK  124  A    between atoms: _284  and  _286
REMARK  125  A    between atoms: _286  and  _287
REMARK  126  A    between atoms: _286  and  _289
REMARK  127  A    between atoms: _292  and  _294
REMARK  128  A    between atoms: _294  and  _295
REMARK  129  A    between atoms: _294  and  _297
REMARK  130  A    between atoms: _297  and  _298
REMARK  131  A    between atoms: _301  and  _303
REMARK  132  A    between atoms: _303  and  _304
REMARK  133  A    between atoms: _303  and  _306
REMARK  134  A    between atoms: _309  and  _311
REMARK  135  A    between atoms: _311  and  _312
REMARK  136  A    between atoms: _311  and  _314
REMARK  137  A    between atoms: _314  and  _315
REMARK  138  A    between atoms: _315  and  _316
REMARK  139  A    between atoms: _319  and  _321
REMARK  140  A    between atoms: _321  and  _322
REMARK  141  A    between atoms: _321  and  _324
REMARK  142  A    between atoms: _324  and  _325
REMARK  143  A    between atoms: _331  and  _333
REMARK  144  A    between atoms: _333  and  _334
REMARK  145  A    between atoms: _333  and  _336
REMARK  146  A    between atoms: _338  and  _340
REMARK  147  A    between atoms: _340  and  _341
REMARK  148  A    between atoms: _340  and  _343
REMARK  149  A    between atoms: _343  and  _344
REMARK  150  A    between atoms: _344  and  _345
REMARK  151  A    between atoms: _345  and  _346
REMARK  152  A    between atoms: _346  and  _347
REMARK  153  A    between atoms: _351  and  _353
REMARK  154  A    between atoms: _353  and  _354
REMARK  155  A    between atoms: _353  and  _356
REMARK  156  A    between atoms: _356  and  _357
REMARK  157  A    between atoms: _363  and  _365
REMARK  158  A    between atoms: _365  and  _366
REMARK  159  A    between atoms: _368  and  _370
REMARK  160  A    between atoms: _370  and  _371
REMARK  161  A    between atoms: _370  and  _373
REMARK  162  A    between atoms: _373  and  _374
REMARK  163  A    between atoms: _379  and  _381
REMARK  164  A    between atoms: _381  and  _382
REMARK  165  A    between atoms: _384  and  _386
REMARK  166  A    between atoms: _386  and  _387
REMARK  167  A    between atoms: _386  and  _389
REMARK  168  A    between atoms: _389  and  _390
REMARK  169  A    between atoms: _390  and  _391
REMARK  170  A    between atoms: _393  and  _395
REMARK  171  A    between atoms: _395  and  _396
REMARK  172  A    between atoms: _395  and  _398
REMARK  173  A    between atoms: _398  and  _399
REMARK  174  A    between atoms: _402  and  _404
REMARK  175  A    between atoms: _404  and  _405
REMARK  176  A    between atoms: _404  and  _407
REMARK  177  A    between atoms: _409  and  _411
REMARK  178  A    between atoms: _411  and  _412
REMARK  179  A    between atoms: _411  and  _414
REMARK  180  A    between atoms: _414  and  _415
REMARK  181  A    between atoms: _418  and  _420
REMARK  182  A    between atoms: _420  and  _421
REMARK  183  A    between atoms: _420  and  _423
REMARK  184  A    between atoms: _423  and  _424
REMARK  185  A    between atoms: _429  and  _431
REMARK  186  A    between atoms: _431  and  _432
REMARK  187  A    between atoms: _431  and  _434
REMARK  188  A    between atoms: _434  and  _435
REMARK  189  A    between atoms: _435  and  _436
REMARK  190  A    between atoms: _436  and  _437
REMARK  191  A    between atoms: _446  and  _448
REMARK  192  A    between atoms: _448  and  _449
REMARK  193  A    between atoms: _448  and  _451
REMARK  194  A    between atoms: _451  and  _452
REMARK  195  A    between atoms: _452  and  _453
REMARK  196  A    between atoms: _453  and  _454
REMARK  197  A    between atoms: _463  and  _465
REMARK  198  A    between atoms: _465  and  _466
REMARK  199  A    between atoms: _465  and  _468
REMARK  200  A    between atoms: _468  and  _469
REMARK  201  A    between atoms: _474  and  _476
REMARK  202  A    between atoms: _476  and  _477
REMARK  203  A    between atoms: _476  and  _479
REMARK  204  A    between atoms: _479  and  _480
REMARK  205  A    between atoms: _483  and  _485
REMARK  206  A    between atoms: _485  and  _486
REMARK  207  A    between atoms: _485  and  _488
REMARK  208  A    between atoms: _488  and  _489
REMARK  209  A    between atoms: _492  and  _494
REMARK  210  A    between atoms: _494  and  _495
REMARK  211  A    between atoms: _494  and  _497
REMARK  212  A    between atoms: _497  and  _498
REMARK  213  A    between atoms: _500  and  _502
REMARK  214  A    between atoms: _502  and  _503
REMARK  215  A    between atoms: _502  and  _505
REMARK  216  A    between atoms: _505  and  _506
REMARK  217  A    between atoms: _506  and  _507
REMARK  218  A    between atoms: _507  and  _508
REMARK  219  A    between atoms: _508  and  _509
REMARK  220  A    between atoms: _513  and  _515
REMARK  221  A    between atoms: _515  and  _516
REMARK  222  A    between atoms: _515  and  _518
REMARK  223  A    between atoms: _518  and  _519
REMARK  224  A    between atoms: _522  and  _524
REMARK  225  A    between atoms: _524  and  _525
REMARK  226  A    between atoms: _524  and  _527
REMARK  227  A    between atoms: _529  and  _531
REMARK  228  A    between atoms: _531  and  _532
REMARK  229  A    between atoms: _531  and  _534
REMARK  230  A    between atoms: _534  and  _535
REMARK  231  A    between atoms: _538  and  _540
REMARK  232  A    between atoms: _540  and  _541
REMARK  233  A    between atoms: _540  and  _543
REMARK  234  A    between atoms: _543  and  _544
REMARK  235  A    between atoms: _550  and  _552
REMARK  236  A    between atoms: _552  and  _553
REMARK  237  A    between atoms: _555  and  _557
REMARK  238  A    between atoms: _557  and  _558
REMARK  239  A    between atoms: _557  and  _560
REMARK  240  A    between atoms: _560  and  _561
REMARK  241  A    between atoms: _564  and  _566
REMARK  242  A    between atoms: _566  and  _567
REMARK  243  A    between atoms: _570  and  _572
REMARK  244  A    between atoms: _572  and  _573
REMARK  245  A    between atoms: _572  and  _575
REMARK  246  A    between atoms: _575  and  _576
REMARK  247  A    between atoms: _576  and  _577
REMARK  248  A    between atoms: _577  and  _578
REMARK                            x       y       z     vdW  Elec       q    Type
REMARK                         _______ _______ _______ _____ _____    ______ ____
ROOT
ATOM      1  O   HOH     1     -13.391  -4.309 -20.939  0.00  0.00    +0.000 OA
ENDROOT
TORSDOF 0
REMARK  Name = ../refined-set-2016/4ase/4ase_pocket.pdb
REMARK  248 active torsions:
REMARK  status: ('A' for Active; 'I' for Inactive)
REMARK    1  A    between atoms: _1  and  _3
REMARK    2  A    between atoms: _3  and  _4
REMARK    3  A    between atoms: _3  and  _6
REMARK    4  A    between atoms: _6  and  _7
REMARK    5  A    between atoms: _10  and  _12
REMARK    6  A    between atoms: _12  and  _13
REMARK    7  A    between atoms: _12  and  _15
REMARK    8  A    between atoms: _15  and  _16
REMARK    9  A    between atoms: _16  and  _17
REMARK   10  A    between atoms: _17  and  _18
REMARK   11  A    between atoms: _18  and  _19
REMARK   12  A    between atoms: _24  and  _25
REMARK   13  A    between atoms: _30  and  _32
REMARK   14  A    between atoms: _32  and  _33
REMARK   15  A    between atoms: _32  and  _35
REMARK   16  A    between atoms: _35  and  _36
REMARK   17  A    between atoms: _39  and  _41
REMARK   18  A    between atoms: _41  and  _42
REMARK   19  A    between atoms: _44  and  _46
REMARK   20  A    between atoms: _46  and  _47
REMARK   21  A    between atoms: _46  and  _49
REMARK   22  A    between atoms: _49  and  _50
REMARK   23  A    between atoms: _50  and  _51
REMARK   24  A    between atoms: _51  and  _52
REMARK   25  A    between atoms: _61  and  _63
REMARK   26  A    between atoms: _63  and  _64
REMARK   27  A    between atoms: _63  and  _66
REMARK   28  A    between atoms: _66  and  _67
REMARK   29  A    between atoms: _67  and  _68
REMARK   30  A    between atoms: _73  and  _75
REMARK   31  A    between atoms: _75  and  _76
REMARK   32  A    between atoms: _75  and  _78
REMARK   33  A    between atoms: _81  and  _83
REMARK   34  A    between atoms: _83  and  _84
REMARK   35  A    between atoms: _83  and  _86
REMARK   36  A    between atoms: _86  and  _87
REMARK   37  A    between atoms: _90  and  _92
REMARK   38  A    between atoms: _92  and  _93
REMARK   39  A    between atoms: _92  and  _95
REMARK   40  A    between atoms: _95  and  _96
REMARK   41  A    between atoms: _96  and  _97
REMARK   42  A    between atoms: _100  and  _102
REMARK   43  A    between atoms: _102  and  _103
REMARK   44  A    between atoms: _102  and  _105
REMARK   45  A    between atoms: _105  and  _106
REMARK   46  A    between atoms: _109  and  _111
REMARK   47  A    between atoms: _111  and  _112
REMARK   48  A    between atoms: _111  and  _114
REMARK   49  A    between atoms: _117  and  _119
REMARK   50  A    between atoms: _119  and  _120
REMARK   51  A    between atoms: _123  and  _125
REMARK   52  A    between atoms: _125  and  _126
REMARK   53  A    between atoms: _125  and  _128
REMARK   54  A    between atoms: _131  and  _133
REMARK   55  A    between atoms: _133  and  _134
REMARK   56  A    between atoms: _133  and  _136
REMARK   57  A    between atoms: _136  and  _137
REMARK   58  A    between atoms: _137  and  _138
REMARK   59  A    between atoms: _138  and  _139
REMARK   60  A    between atoms: _139  and  _140
REMARK   61  A    between atoms: _144  and  _146
REMARK   62  A    between atoms: _146  and  _147
REMARK   63  A    between atoms: _146  and  _149
REMARK   64  A    between atoms: _149  and  _150
REMARK   65  A    between atoms: _150  and  _151
REMARK   66  A    between atoms: _153  and  _155
REMARK   67  A    between atoms: _155  and  _156
REMARK   68  A    between atoms: _155  and  _158
REMARK   69  A    between atoms: _158  and  _159
REMARK   70  A    between atoms: _162  and  _164
REMARK   71  A    between atoms: _164  and  _165
REMARK   72  A    between atoms: _164  and  _167
REMARK   73  A    between atoms: _167  and  _168
REMARK   74  A    between atoms: _170  and  _172
REMARK   75  A    between atoms: _172  and  _173
REMARK   76  A    between atoms: _172  and  _175
REMARK   77  A    between atoms: _175  and  _176
REMARK   78  A    between atoms: _176  and  _177
REMARK   79  A    between atoms: _180  and  _182
REMARK   80  A    between atoms: _182  and  _183
REMARK   81  A    between atoms: _182  and  _185
REMARK   82  A    between atoms: _185  and  _186
REMARK   83  A    between atoms: _189  and  _191
REMARK   84  A    between atoms: _191  and  _192
REMARK   85  A    between atoms: _191  and  _194
REMARK   86  A    between atoms: _194  and  _195
REMARK   87  A    between atoms: _198  and  _200
REMARK   88  A    between atoms: _200  and  _201
REMARK   89  A    between atoms: _200  and  _203
REMARK   90  A    between atoms: _203  and  _204
REMARK   91  A    between atoms: _207  and  _209
REMARK   92  A    between atoms: _209  and  _210
REMARK   93  A    between atoms: _209  and  _212
REMARK   94  A    between atoms: _212  and  _213
REMARK   95  A    between atoms: _216  and  _218
REMARK   96  A    between atoms: _218  and  _219
REMARK   97  A    between atoms: _218  and  _221
REMARK   98  A    between atoms: _221  and  _222
REMARK   99  A    between atoms: _225  and  _227
REMARK  100  A    between atoms: _227  and  _228
REMARK  101  A    between atoms: _227  and  _230
REMARK  102  A    between atoms: _233  and  _235
REMARK  103  A    between atoms: _235  and  _236
REMARK  104  A    between atoms: _235  and  _238
REMARK  105  A    between atoms: _241  and  _243
REMARK  106  A    between atoms: _243  and  _244
REMARK  107  A    between atoms: _243  and  _246
REMARK  108  A    between atoms: _246  and  _247
REMARK  109  A    between atoms: _252  and  _254
REMARK  110  A    between atoms: _254  and  _255
REMARK  111  A    between atoms: _254  and  _257
REMARK  112  A    between atoms: _257  and  _258
REMARK  113  A    between atoms: _261  and  _263
REMARK  114  A    between atoms: _263  and  _264
REMARK  115  A    between atoms: _263  and  _266
REMARK  116  A    between atoms: _266  and  _267
REMARK  117  A    between atoms: _270  and  _272
REMARK  118  A    between atoms: _272  and  _273
REMARK  119  A    between atoms: _275  and  _277
REMARK  120  A    between atoms: _277  and  _278
REMARK  121  A    between atoms: _277  and  _280
REMARK  122  A    between atoms: _280  and  _281
REMARK  123  A    between atoms: _281  and  _282
REMARK  124  A    between atoms: _284  and  _286
REMARK  125  A    between atoms: _286  and  _287
REMARK  126  A    between atoms: _286  and  _289
REMARK  127  A    between atoms: _292  and  _294
REMARK  128  A    between atoms: _294  and  _295
REMARK  129  A    between atoms: _294  and  _297
REMARK  130  A    between atoms: _297  and  _298
REMARK  131  A    between atoms: _301  and  _303
REMARK  132  A    between atoms: _303  and  _304
REMARK  133  A    between atoms: _303  and  _306
REMARK  134  A    between atoms: _309  and  _311
REMARK  135  A    between atoms: _311  and  _312
REMARK  136  A    between atoms: _311  and  _314
REMARK  137  A    between atoms: _314  and  _315
REMARK  138  A    between atoms: _315  and  _316
REMARK  139  A    between atoms: _319  and  _321
REMARK  140  A    between atoms: _321  and  _322
REMARK  141  A    between atoms: _321  and  _324
REMARK  142  A    between atoms: _324  and  _325
REMARK  143  A    between atoms: _331  and  _333
REMARK  144  A    between atoms: _333  and  _334
REMARK  145  A    between atoms: _333  and  _336
REMARK  146  A    between atoms: _338  and  _340
REMARK  147  A    between atoms: _340  and  _341
REMARK  148  A    between atoms: _340  and  _343
REMARK  149  A    between atoms: _343  and  _344
REMARK  150  A    between atoms: _344  and  _345
REMARK  151  A    between atoms: _345  and  _346
REMARK  152  A    between atoms: _346  and  _347
REMARK  153  A    between atoms: _351  and  _353
REMARK  154  A    between atoms: _353  and  _354
REMARK  155  A    between atoms: _353  and  _356
REMARK  156  A    between atoms: _356  and  _357
REMARK  157  A    between atoms: _363  and  _365
REMARK  158  A    between atoms: _365  and  _366
REMARK  159  A    between atoms: _368  and  _370
REMARK  160  A    between atoms: _370  and  _371
REMARK  161  A    between atoms: _370  and  _373
REMARK  162  A    between atoms: _373  and  _374
REMARK  163  A    between atoms: _379  and  _381
REMARK  164  A    between atoms: _381  and  _382
REMARK  165  A    between atoms: _384  and  _386
REMARK  166  A    between atoms: _386  and  _387
REMARK  167  A    between atoms: _386  and  _389
REMARK  168  A    between atoms: _389  and  _390
REMARK  169  A    between atoms: _390  and  _391
REMARK  170  A    between atoms: _393  and  _395
REMARK  171  A    between atoms: _395  and  _396
REMARK  172  A    between atoms: _395  and  _398
REMARK  173  A    between atoms: _398  and  _399
REMARK  174  A    between atoms: _402  and  _404
REMARK  175  A    between atoms: _404  and  _405
REMARK  176  A    between atoms: _404  and  _407
REMARK  177  A    between atoms: _409  and  _411
REMARK  178  A    between atoms: _411  and  _412
REMARK  179  A    between atoms: _411  and  _414
REMARK  180  A    between atoms: _414  and  _415
REMARK  181  A    between atoms: _418  and  _420
REMARK  182  A    between atoms: _420  and  _421
REMARK  183  A    between atoms: _420  and  _423
REMARK  184  A    between atoms: _423  and  _424
REMARK  185  A    between atoms: _429  and  _431
REMARK  186  A    between atoms: _431  and  _432
REMARK  187  A    between atoms: _431  and  _434
REMARK  188  A    between atoms: _434  and  _435
REMARK  189  A    between atoms: _435  and  _436
REMARK  190  A    between atoms: _436  and  _437
REMARK  191  A    between atoms: _446  and  _448
REMARK  192  A    between atoms: _448  and  _449
REMARK  193  A    between atoms: _448  and  _451
REMARK  194  A    between atoms: _451  and  _452
REMARK  195  A    between atoms: _452  and  _453
REMARK  196  A    between atoms: _453  and  _454
REMARK  197  A    between atoms: _463  and  _465
REMARK  198  A    between atoms: _465  and  _466
REMARK  199  A    between atoms: _465  and  _468
REMARK  200  A    between atoms: _468  and  _469
REMARK  201  A    between atoms: _474  and  _476
REMARK  202  A    between atoms: _476  and  _477
REMARK  203  A    between atoms: _476  and  _479
REMARK  204  A    between atoms: _479  and  _480
REMARK  205  A    between atoms: _483  and  _485
REMARK  206  A    between atoms: _485  and  _486
REMARK  207  A    between atoms: _485  and  _488
REMARK  208  A    between atoms: _488  and  _489
REMARK  209  A    between atoms: _492  and  _494
REMARK  210  A    between atoms: _494  and  _495
REMARK  211  A    between atoms: _494  and  _497
REMARK  212  A    between atoms: _497  and  _498
REMARK  213  A    between atoms: _500  and  _502
REMARK  214  A    between atoms: _502  and  _503
REMARK  215  A    between atoms: _502  and  _505
REMARK  216  A    between atoms: _505  and  _506
REMARK  217  A    between atoms: _506  and  _507
REMARK  218  A    between atoms: _507  and  _508
REMARK  219  A    between atoms: _508  and  _509
REMARK  220  A    between atoms: _513  and  _515
REMARK  221  A    between atoms: _515  and  _516
REMARK  222  A    between atoms: _515  and  _518
REMARK  223  A    between atoms: _518  and  _519
REMARK  224  A    between atoms: _522  and  _524
REMARK  225  A    between atoms: _524  and  _525
REMARK  226  A    between atoms: _524  and  _527
REMARK  227  A    between atoms: _529  and  _531
REMARK  228  A    between atoms: _531  and  _532
REMARK  229  A    between atoms: _531  and  _534
REMARK  230  A    between atoms: _534  and  _535
REMARK  231  A    between atoms: _538  and  _540
REMARK  232  A    between atoms: _540  and  _541
REMARK  233  A    between atoms: _540  and  _543
REMARK  234  A    between atoms: _543  and  _544
REMARK  235  A    between atoms: _550  and  _552
REMARK  236  A    between atoms: _552  and  _553
REMARK  237  A    between atoms: _555  and  _557
REMARK  238  A    between atoms: _557  and  _558
REMARK  239  A    between atoms: _557  and  _560
REMARK  240  A    between atoms: _560  and  _561
REMARK  241  A    between atoms: _564  and  _566
REMARK  242  A    between atoms: _566  and  _567
REMARK  243  A    between atoms: _570  and  _572
REMARK  244  A    between atoms: _572  and  _573
REMARK  245  A    between atoms: _572  and  _575
REMARK  246  A    between atoms: _575  and  _576
REMARK  247  A    between atoms: _576  and  _577
REMARK  248  A    between atoms: _577  and  _578
REMARK                            x       y       z     vdW  Elec       q    Type
REMARK                         _______ _______ _______ _____ _____    ______ ____
ROOT
ATOM      1  O   HOH     1     -13.592  -6.394 -16.593  0.00  0.00    +0.000 OA
ENDROOT
TORSDOF 0
REMARK  Name = ../refined-set-2016/4ase/4ase_pocket.pdb
REMARK  248 active torsions:
REMARK  status: ('A' for Active; 'I' for Inactive)
REMARK    1  A    between atoms: _1  and  _3
REMARK    2  A    between atoms: _3  and  _4
REMARK    3  A    between atoms: _3  and  _6
REMARK    4  A    between atoms: _6  and  _7
REMARK    5  A    between atoms: _10  and  _12
REMARK    6  A    between atoms: _12  and  _13
REMARK    7  A    between atoms: _12  and  _15
REMARK    8  A    between atoms: _15  and  _16
REMARK    9  A    between atoms: _16  and  _17
REMARK   10  A    between atoms: _17  and  _18
REMARK   11  A    between atoms: _18  and  _19
REMARK   12  A    between atoms: _24  and  _25
REMARK   13  A    between atoms: _30  and  _32
REMARK   14  A    between atoms: _32  and  _33
REMARK   15  A    between atoms: _32  and  _35
REMARK   16  A    between atoms: _35  and  _36
REMARK   17  A    between atoms: _39  and  _41
REMARK   18  A    between atoms: _41  and  _42
REMARK   19  A    between atoms: _44  and  _46
REMARK   20  A    between atoms: _46  and  _47
REMARK   21  A    between atoms: _46  and  _49
REMARK   22  A    between atoms: _49  and  _50
REMARK   23  A    between atoms: _50  and  _51
REMARK   24  A    between atoms: _51  and  _52
REMARK   25  A    between atoms: _61  and  _63
REMARK   26  A    between atoms: _63  and  _64
REMARK   27  A    between atoms: _63  and  _66
REMARK   28  A    between atoms: _66  and  _67
REMARK   29  A    between atoms: _67  and  _68
REMARK   30  A    between atoms: _73  and  _75
REMARK   31  A    between atoms: _75  and  _76
REMARK   32  A    between atoms: _75  and  _78
REMARK   33  A    between atoms: _81  and  _83
REMARK   34  A    between atoms: _83  and  _84
REMARK   35  A    between atoms: _83  and  _86
REMARK   36  A    between atoms: _86  and  _87
REMARK   37  A    between atoms: _90  and  _92
REMARK   38  A    between atoms: _92  and  _93
REMARK   39  A    between atoms: _92  and  _95
REMARK   40  A    between atoms: _95  and  _96
REMARK   41  A    between atoms: _96  and  _97
REMARK   42  A    between atoms: _100  and  _102
REMARK   43  A    between atoms: _102  and  _103
REMARK   44  A    between atoms: _102  and  _105
REMARK   45  A    between atoms: _105  and  _106
REMARK   46  A    between atoms: _109  and  _111
REMARK   47  A    between atoms: _111  and  _112
REMARK   48  A    between atoms: _111  and  _114
REMARK   49  A    between atoms: _117  and  _119
REMARK   50  A    between atoms: _119  and  _120
REMARK   51  A    between atoms: _123  and  _125
REMARK   52  A    between atoms: _125  and  _126
REMARK   53  A    between atoms: _125  and  _128
REMARK   54  A    between atoms: _131  and  _133
REMARK   55  A    between atoms: _133  and  _134
REMARK   56  A    between atoms: _133  and  _136
REMARK   57  A    between atoms: _136  and  _137
REMARK   58  A    between atoms: _137  and  _138
REMARK   59  A    between atoms: _138  and  _139
REMARK   60  A    between atoms: _139  and  _140
REMARK   61  A    between atoms: _144  and  _146
REMARK   62  A    between atoms: _146  and  _147
REMARK   63  A    between atoms: _146  and  _149
REMARK   64  A    between atoms: _149  and  _150
REMARK   65  A    between atoms: _150  and  _151
REMARK   66  A    between atoms: _153  and  _155
REMARK   67  A    between atoms: _155  and  _156
REMARK   68  A    between atoms: _155  and  _158
REMARK   69  A    between atoms: _158  and  _159
REMARK   70  A    between atoms: _162  and  _164
REMARK   71  A    between atoms: _164  and  _165
REMARK   72  A    between atoms: _164  and  _167
REMARK   73  A    between atoms: _167  and  _168
REMARK   74  A    between atoms: _170  and  _172
REMARK   75  A    between atoms: _172  and  _173
REMARK   76  A    between atoms: _172  and  _175
REMARK   77  A    between atoms: _175  and  _176
REMARK   78  A    between atoms: _176  and  _177
REMARK   79  A    between atoms: _180  and  _182
REMARK   80  A    between atoms: _182  and  _183
REMARK   81  A    between atoms: _182  and  _185
REMARK   82  A    between atoms: _185  and  _186
REMARK   83  A    between atoms: _189  and  _191
REMARK   84  A    between atoms: _191  and  _192
REMARK   85  A    between atoms: _191  and  _194
REMARK   86  A    between atoms: _194  and  _195
REMARK   87  A    between atoms: _198  and  _200
REMARK   88  A    between atoms: _200  and  _201
REMARK   89  A    between atoms: _200  and  _203
REMARK   90  A    between atoms: _203  and  _204
REMARK   91  A    between atoms: _207  and  _209
REMARK   92  A    between atoms: _209  and  _210
REMARK   93  A    between atoms: _209  and  _212
REMARK   94  A    between atoms: _212  and  _213
REMARK   95  A    between atoms: _216  and  _218
REMARK   96  A    between atoms: _218  and  _219
REMARK   97  A    between atoms: _218  and  _221
REMARK   98  A    between atoms: _221  and  _222
REMARK   99  A    between atoms: _225  and  _227
REMARK  100  A    between atoms: _227  and  _228
REMARK  101  A    between atoms: _227  and  _230
REMARK  102  A    between atoms: _233  and  _235
REMARK  103  A    between atoms: _235  and  _236
REMARK  104  A    between atoms: _235  and  _238
REMARK  105  A    between atoms: _241  and  _243
REMARK  106  A    between atoms: _243  and  _244
REMARK  107  A    between atoms: _243  and  _246
REMARK  108  A    between atoms: _246  and  _247
REMARK  109  A    between atoms: _252  and  _254
REMARK  110  A    between atoms: _254  and  _255
REMARK  111  A    between atoms: _254  and  _257
REMARK  112  A    between atoms: _257  and  _258
REMARK  113  A    between atoms: _261  and  _263
REMARK  114  A    between atoms: _263  and  _264
REMARK  115  A    between atoms: _263  and  _266
REMARK  116  A    between atoms: _266  and  _267
REMARK  117  A    between atoms: _270  and  _272
REMARK  118  A    between atoms: _272  and  _273
REMARK  119  A    between atoms: _275  and  _277
REMARK  120  A    between atoms: _277  and  _278
REMARK  121  A    between atoms: _277  and  _280
REMARK  122  A    between atoms: _280  and  _281
REMARK  123  A    between atoms: _281  and  _282
REMARK  124  A    between atoms: _284  and  _286
REMARK  125  A    between atoms: _286  and  _287
REMARK  126  A    between atoms: _286  and  _289
REMARK  127  A    between atoms: _292  and  _294
REMARK  128  A    between atoms: _294  and  _295
REMARK  129  A    between atoms: _294  and  _297
REMARK  130  A    between atoms: _297  and  _298
REMARK  131  A    between atoms: _301  and  _303
REMARK  132  A    between atoms: _303  and  _304
REMARK  133  A    between atoms: _303  and  _306
REMARK  134  A    between atoms: _309  and  _311
REMARK  135  A    between atoms: _311  and  _312
REMARK  136  A    between atoms: _311  and  _314
REMARK  137  A    between atoms: _314  and  _315
REMARK  138  A    between atoms: _315  and  _316
REMARK  139  A    between atoms: _319  and  _321
REMARK  140  A    between atoms: _321  and  _322
REMARK  141  A    between atoms: _321  and  _324
REMARK  142  A    between atoms: _324  and  _325
REMARK  143  A    between atoms: _331  and  _333
REMARK  144  A    between atoms: _333  and  _334
REMARK  145  A    between atoms: _333  and  _336
REMARK  146  A    between atoms: _338  and  _340
REMARK  147  A    between atoms: _340  and  _341
REMARK  148  A    between atoms: _340  and  _343
REMARK  149  A    between atoms: _343  and  _344
REMARK  150  A    between atoms: _344  and  _345
REMARK  151  A    between atoms: _345  and  _346
REMARK  152  A    between atoms: _346  and  _347
REMARK  153  A    between atoms: _351  and  _353
REMARK  154  A    between atoms: _353  and  _354
REMARK  155  A    between atoms: _353  and  _356
REMARK  156  A    between atoms: _356  and  _357
REMARK  157  A    between atoms: _363  and  _365
REMARK  158  A    between atoms: _365  and  _366
REMARK  159  A    between atoms: _368  and  _370
REMARK  160  A    between atoms: _370  and  _371
REMARK  161  A    between atoms: _370  and  _373
REMARK  162  A    between atoms: _373  and  _374
REMARK  163  A    between atoms: _379  and  _381
REMARK  164  A    between atoms: _381  and  _382
REMARK  165  A    between atoms: _384  and  _386
REMARK  166  A    between atoms: _386  and  _387
REMARK  167  A    between atoms: _386  and  _389
REMARK  168  A    between atoms: _389  and  _390
REMARK  169  A    between atoms: _390  and  _391
REMARK  170  A    between atoms: _393  and  _395
REMARK  171  A    between atoms: _395  and  _396
REMARK  172  A    between atoms: _395  and  _398
REMARK  173  A    between atoms: _398  and  _399
REMARK  174  A    between atoms: _402  and  _404
REMARK  175  A    between atoms: _404  and  _405
REMARK  176  A    between atoms: _404  and  _407
REMARK  177  A    between atoms: _409  and  _411
REMARK  178  A    between atoms: _411  and  _412
REMARK  179  A    between atoms: _411  and  _414
REMARK  180  A    between atoms: _414  and  _415
REMARK  181  A    between atoms: _418  and  _420
REMARK  182  A    between atoms: _420  and  _421
REMARK  183  A    between atoms: _420  and  _423
REMARK  184  A    between atoms: _423  and  _424
REMARK  185  A    between atoms: _429  and  _431
REMARK  186  A    between atoms: _431  and  _432
REMARK  187  A    between atoms: _431  and  _434
REMARK  188  A    between atoms: _434  and  _435
REMARK  189  A    between atoms: _435  and  _436
REMARK  190  A    between atoms: _436  and  _437
REMARK  191  A    between atoms: _446  and  _448
REMARK  192  A    between atoms: _448  and  _449
REMARK  193  A    between atoms: _448  and  _451
REMARK  194  A    between atoms: _451  and  _452
REMARK  195  A    between atoms: _452  and  _453
REMARK  196  A    between atoms: _453  and  _454
REMARK  197  A    between atoms: _463  and  _465
REMARK  198  A    between atoms: _465  and  _466
REMARK  199  A    between atoms: _465  and  _468
REMARK  200  A    between atoms: _468  and  _469
REMARK  201  A    between atoms: _474  and  _476
REMARK  202  A    between atoms: _476  and  _477
REMARK  203  A    between atoms: _476  and  _479
REMARK  204  A    between atoms: _479  and  _480
REMARK  205  A    between atoms: _483  and  _485
REMARK  206  A    between atoms: _485  and  _486
REMARK  207  A    between atoms: _485  and  _488
REMARK  208  A    between atoms: _488  and  _489
REMARK  209  A    between atoms: _492  and  _494
REMARK  210  A    between atoms: _494  and  _495
REMARK  211  A    between atoms: _494  and  _497
REMARK  212  A    between atoms: _497  and  _498
REMARK  213  A    between atoms: _500  and  _502
REMARK  214  A    between atoms: _502  and  _503
REMARK  215  A    between atoms: _502  and  _505
REMARK  216  A    between atoms: _505  and  _506
REMARK  217  A    between atoms: _506  and  _507
REMARK  218  A    between atoms: _507  and  _508
REMARK  219  A    between atoms: _508  and  _509
REMARK  220  A    between atoms: _513  and  _515
REMARK  221  A    between atoms: _515  and  _516
REMARK  222  A    between atoms: _515  and  _518
REMARK  223  A    between atoms: _518  and  _519
REMARK  224  A    between atoms: _522  and  _524
REMARK  225  A    between atoms: _524  and  _525
REMARK  226  A    between atoms: _524  and  _527
REMARK  227  A    between atoms: _529  and  _531
REMARK  228  A    between atoms: _531  and  _532
REMARK  229  A    between atoms: _531  and  _534
REMARK  230  A    between atoms: _534  and  _535
REMARK  231  A    between atoms: _538  and  _540
REMARK  232  A    between atoms: _540  and  _541
REMARK  233  A    between atoms: _540  and  _543
REMARK  234  A    between atoms: _543  and  _544
REMARK  235  A    between atoms: _550  and  _552
REMARK  236  A    between atoms: _552  and  _553
REMARK  237  A    between atoms: _555  and  _557
REMARK  238  A    between atoms: _557  and  _558
REMARK  239  A    between atoms: _557  and  _560
REMARK  240  A    between atoms: _560  and  _561
REMARK  241  A    between atoms: _564  and  _566
REMARK  242  A    between atoms: _566  and  _567
REMARK  243  A    between atoms: _570  and  _572
REMARK  244  A    between atoms: _572  and  _573
REMARK  245  A    between atoms: _572  and  _575
REMARK  246  A    between atoms: _575  and  _576
REMARK  247  A    between atoms: _576  and  _577
REMARK  248  A    between atoms: _577  and  _578
REMARK                            x       y       z     vdW  Elec       q    Type
REMARK                         _______ _______ _______ _____ _____    ______ ____
ROOT
ATOM      1  O   HOH     1     -14.283  -8.086 -13.315  0.00  0.00    +0.000 OA
ENDROOT
TORSDOF 0
REMARK  Name = ../refined-set-2016/4ase/4ase_pocket.pdb
REMARK  248 active torsions:
REMARK  status: ('A' for Active; 'I' for Inactive)
REMARK    1  A    between atoms: _1  and  _3
REMARK    2  A    between atoms: _3  and  _4
REMARK    3  A    between atoms: _3  and  _6
REMARK    4  A    between atoms: _6  and  _7
REMARK    5  A    between atoms: _10  and  _12
REMARK    6  A    between atoms: _12  and  _13
REMARK    7  A    between atoms: _12  and  _15
REMARK    8  A    between atoms: _15  and  _16
REMARK    9  A    between atoms: _16  and  _17
REMARK   10  A    between atoms: _17  and  _18
REMARK   11  A    between atoms: _18  and  _19
REMARK   12  A    between atoms: _24  and  _25
REMARK   13  A    between atoms: _30  and  _32
REMARK   14  A    between atoms: _32  and  _33
REMARK   15  A    between atoms: _32  and  _35
REMARK   16  A    between atoms: _35  and  _36
REMARK   17  A    between atoms: _39  and  _41
REMARK   18  A    between atoms: _41  and  _42
REMARK   19  A    between atoms: _44  and  _46
REMARK   20  A    between atoms: _46  and  _47
REMARK   21  A    between atoms: _46  and  _49
REMARK   22  A    between atoms: _49  and  _50
REMARK   23  A    between atoms: _50  and  _51
REMARK   24  A    between atoms: _51  and  _52
REMARK   25  A    between atoms: _61  and  _63
REMARK   26  A    between atoms: _63  and  _64
REMARK   27  A    between atoms: _63  and  _66
REMARK   28  A    between atoms: _66  and  _67
REMARK   29  A    between atoms: _67  and  _68
REMARK   30  A    between atoms: _73  and  _75
REMARK   31  A    between atoms: _75  and  _76
REMARK   32  A    between atoms: _75  and  _78
REMARK   33  A    between atoms: _81  and  _83
REMARK   34  A    between atoms: _83  and  _84
REMARK   35  A    between atoms: _83  and  _86
REMARK   36  A    between atoms: _86  and  _87
REMARK   37  A    between atoms: _90  and  _92
REMARK   38  A    between atoms: _92  and  _93
REMARK   39  A    between atoms: _92  and  _95
REMARK   40  A    between atoms: _95  and  _96
REMARK   41  A    between atoms: _96  and  _97
REMARK   42  A    between atoms: _100  and  _102
REMARK   43  A    between atoms: _102  and  _103
REMARK   44  A    between atoms: _102  and  _105
REMARK   45  A    between atoms: _105  and  _106
REMARK   46  A    between atoms: _109  and  _111
REMARK   47  A    between atoms: _111  and  _112
REMARK   48  A    between atoms: _111  and  _114
REMARK   49  A    between atoms: _117  and  _119
REMARK   50  A    between atoms: _119  and  _120
REMARK   51  A    between atoms: _123  and  _125
REMARK   52  A    between atoms: _125  and  _126
REMARK   53  A    between atoms: _125  and  _128
REMARK   54  A    between atoms: _131  and  _133
REMARK   55  A    between atoms: _133  and  _134
REMARK   56  A    between atoms: _133  and  _136
REMARK   57  A    between atoms: _136  and  _137
REMARK   58  A    between atoms: _137  and  _138
REMARK   59  A    between atoms: _138  and  _139
REMARK   60  A    between atoms: _139  and  _140
REMARK   61  A    between atoms: _144  and  _146
REMARK   62  A    between atoms: _146  and  _147
REMARK   63  A    between atoms: _146  and  _149
REMARK   64  A    between atoms: _149  and  _150
REMARK   65  A    between atoms: _150  and  _151
REMARK   66  A    between atoms: _153  and  _155
REMARK   67  A    between atoms: _155  and  _156
REMARK   68  A    between atoms: _155  and  _158
REMARK   69  A    between atoms: _158  and  _159
REMARK   70  A    between atoms: _162  and  _164
REMARK   71  A    between atoms: _164  and  _165
REMARK   72  A    between atoms: _164  and  _167
REMARK   73  A    between atoms: _167  and  _168
REMARK   74  A    between atoms: _170  and  _172
REMARK   75  A    between atoms: _172  and  _173
REMARK   76  A    between atoms: _172  and  _175
REMARK   77  A    between atoms: _175  and  _176
REMARK   78  A    between atoms: _176  and  _177
REMARK   79  A    between atoms: _180  and  _182
REMARK   80  A    between atoms: _182  and  _183
REMARK   81  A    between atoms: _182  and  _185
REMARK   82  A    between atoms: _185  and  _186
REMARK   83  A    between atoms: _189  and  _191
REMARK   84  A    between atoms: _191  and  _192
REMARK   85  A    between atoms: _191  and  _194
REMARK   86  A    between atoms: _194  and  _195
REMARK   87  A    between atoms: _198  and  _200
REMARK   88  A    between atoms: _200  and  _201
REMARK   89  A    between atoms: _200  and  _203
REMARK   90  A    between atoms: _203  and  _204
REMARK   91  A    between atoms: _207  and  _209
REMARK   92  A    between atoms: _209  and  _210
REMARK   93  A    between atoms: _209  and  _212
REMARK   94  A    between atoms: _212  and  _213
REMARK   95  A    between atoms: _216  and  _218
REMARK   96  A    between atoms: _218  and  _219
REMARK   97  A    between atoms: _218  and  _221
REMARK   98  A    between atoms: _221  and  _222
REMARK   99  A    between atoms: _225  and  _227
REMARK  100  A    between atoms: _227  and  _228
REMARK  101  A    between atoms: _227  and  _230
REMARK  102  A    between atoms: _233  and  _235
REMARK  103  A    between atoms: _235  and  _236
REMARK  104  A    between atoms: _235  and  _238
REMARK  105  A    between atoms: _241  and  _243
REMARK  106  A    between atoms: _243  and  _244
REMARK  107  A    between atoms: _243  and  _246
REMARK  108  A    between atoms: _246  and  _247
REMARK  109  A    between atoms: _252  and  _254
REMARK  110  A    between atoms: _254  and  _255
REMARK  111  A    between atoms: _254  and  _257
REMARK  112  A    between atoms: _257  and  _258
REMARK  113  A    between atoms: _261  and  _263
REMARK  114  A    between atoms: _263  and  _264
REMARK  115  A    between atoms: _263  and  _266
REMARK  116  A    between atoms: _266  and  _267
REMARK  117  A    between atoms: _270  and  _272
REMARK  118  A    between atoms: _272  and  _273
REMARK  119  A    between atoms: _275  and  _277
REMARK  120  A    between atoms: _277  and  _278
REMARK  121  A    between atoms: _277  and  _280
REMARK  122  A    between atoms: _280  and  _281
REMARK  123  A    between atoms: _281  and  _282
REMARK  124  A    between atoms: _284  and  _286
REMARK  125  A    between atoms: _286  and  _287
REMARK  126  A    between atoms: _286  and  _289
REMARK  127  A    between atoms: _292  and  _294
REMARK  128  A    between atoms: _294  and  _295
REMARK  129  A    between atoms: _294  and  _297
REMARK  130  A    between atoms: _297  and  _298
REMARK  131  A    between atoms: _301  and  _303
REMARK  132  A    between atoms: _303  and  _304
REMARK  133  A    between atoms: _303  and  _306
REMARK  134  A    between atoms: _309  and  _311
REMARK  135  A    between atoms: _311  and  _312
REMARK  136  A    between atoms: _311  and  _314
REMARK  137  A    between atoms: _314  and  _315
REMARK  138  A    between atoms: _315  and  _316
REMARK  139  A    between atoms: _319  and  _321
REMARK  140  A    between atoms: _321  and  _322
REMARK  141  A    between atoms: _321  and  _324
REMARK  142  A    between atoms: _324  and  _325
REMARK  143  A    between atoms: _331  and  _333
REMARK  144  A    between atoms: _333  and  _334
REMARK  145  A    between atoms: _333  and  _336
REMARK  146  A    between atoms: _338  and  _340
REMARK  147  A    between atoms: _340  and  _341
REMARK  148  A    between atoms: _340  and  _343
REMARK  149  A    between atoms: _343  and  _344
REMARK  150  A    between atoms: _344  and  _345
REMARK  151  A    between atoms: _345  and  _346
REMARK  152  A    between atoms: _346  and  _347
REMARK  153  A    between atoms: _351  and  _353
REMARK  154  A    between atoms: _353  and  _354
REMARK  155  A    between atoms: _353  and  _356
REMARK  156  A    between atoms: _356  and  _357
REMARK  157  A    between atoms: _363  and  _365
REMARK  158  A    between atoms: _365  and  _366
REMARK  159  A    between atoms: _368  and  _370
REMARK  160  A    between atoms: _370  and  _371
REMARK  161  A    between atoms: _370  and  _373
REMARK  162  A    between atoms: _373  and  _374
REMARK  163  A    between atoms: _379  and  _381
REMARK  164  A    between atoms: _381  and  _382
REMARK  165  A    between atoms: _384  and  _386
REMARK  166  A    between atoms: _386  and  _387
REMARK  167  A    between atoms: _386  and  _389
REMARK  168  A    between atoms: _389  and  _390
REMARK  169  A    between atoms: _390  and  _391
REMARK  170  A    between atoms: _393  and  _395
REMARK  171  A    between atoms: _395  and  _396
REMARK  172  A    between atoms: _395  and  _398
REMARK  173  A    between atoms: _398  and  _399
REMARK  174  A    between atoms: _402  and  _404
REMARK  175  A    between atoms: _404  and  _405
REMARK  176  A    between atoms: _404  and  _407
REMARK  177  A    between atoms: _409  and  _411
REMARK  178  A    between atoms: _411  and  _412
REMARK  179  A    between atoms: _411  and  _414
REMARK  180  A    between atoms: _414  and  _415
REMARK  181  A    between atoms: _418  and  _420
REMARK  182  A    between atoms: _420  and  _421
REMARK  183  A    between atoms: _420  and  _423
REMARK  184  A    between atoms: _423  and  _424
REMARK  185  A    between atoms: _429  and  _431
REMARK  186  A    between atoms: _431  and  _432
REMARK  187  A    between atoms: _431  and  _434
REMARK  188  A    between atoms: _434  and  _435
REMARK  189  A    between atoms: _435  and  _436
REMARK  190  A    between atoms: _436  and  _437
REMARK  191  A    between atoms: _446  and  _448
REMARK  192  A    between atoms: _448  and  _449
REMARK  193  A    between atoms: _448  and  _451
REMARK  194  A    between atoms: _451  and  _452
REMARK  195  A    between atoms: _452  and  _453
REMARK  196  A    between atoms: _453  and  _454
REMARK  197  A    between atoms: _463  and  _465
REMARK  198  A    between atoms: _465  and  _466
REMARK  199  A    between atoms: _465  and  _468
REMARK  200  A    between atoms: _468  and  _469
REMARK  201  A    between atoms: _474  and  _476
REMARK  202  A    between atoms: _476  and  _477
REMARK  203  A    between atoms: _476  and  _479
REMARK  204  A    between atoms: _479  and  _480
REMARK  205  A    between atoms: _483  and  _485
REMARK  206  A    between atoms: _485  and  _486
REMARK  207  A    between atoms: _485  and  _488
REMARK  208  A    between atoms: _488  and  _489
REMARK  209  A    between atoms: _492  and  _494
REMARK  210  A    between atoms: _494  and  _495
REMARK  211  A    between atoms: _494  and  _497
REMARK  212  A    between atoms: _497  and  _498
REMARK  213  A    between atoms: _500  and  _502
REMARK  214  A    between atoms: _502  and  _503
REMARK  215  A    between atoms: _502  and  _505
REMARK  216  A    between atoms: _505  and  _506
REMARK  217  A    between atoms: _506  and  _507
REMARK  218  A    between atoms: _507  and  _508
REMARK  219  A    between atoms: _508  and  _509
REMARK  220  A    between atoms: _513  and  _515
REMARK  221  A    between atoms: _515  and  _516
REMARK  222  A    between atoms: _515  and  _518
REMARK  223  A    between atoms: _518  and  _519
REMARK  224  A    between atoms: _522  and  _524
REMARK  225  A    between atoms: _524  and  _525
REMARK  226  A    between atoms: _524  and  _527
REMARK  227  A    between atoms: _529  and  _531
REMARK  228  A    between atoms: _531  and  _532
REMARK  229  A    between atoms: _531  and  _534
REMARK  230  A    between atoms: _534  and  _535
REMARK  231  A    between atoms: _538  and  _540
REMARK  232  A    between atoms: _540  and  _541
REMARK  233  A    between atoms: _540  and  _543
REMARK  234  A    between atoms: _543  and  _544
REMARK  235  A    between atoms: _550  and  _552
REMARK  236  A    between atoms: _552  and  _553
REMARK  237  A    between atoms: _555  and  _557
REMARK  238  A    between atoms: _557  and  _558
REMARK  239  A    between atoms: _557  and  _560
REMARK  240  A    between atoms: _560  and  _561
REMARK  241  A    between atoms: _564  and  _566
REMARK  242  A    between atoms: _566  and  _567
REMARK  243  A    between atoms: _570  and  _572
REMARK  244  A    between atoms: _572  and  _573
REMARK  245  A    between atoms: _572  and  _575
REMARK  246  A    between atoms: _575  and  _576
REMARK  247  A    between atoms: _576  and  _577
REMARK  248  A    between atoms: _577  and  _578
REMARK                            x       y       z     vdW  Elec       q    Type
REMARK                         _______ _______ _______ _____ _____    ______ ____
ROOT
ATOM      1  O   HOH     1     -16.995   8.814 -22.190  0.00  0.00    +0.000 OA
ENDROOT
TORSDOF 0
REMARK  Name = ../refined-set-2016/4ase/4ase_pocket.pdb
REMARK  248 active torsions:
REMARK  status: ('A' for Active; 'I' for Inactive)
REMARK    1  A    between atoms: _1  and  _3
REMARK    2  A    between atoms: _3  and  _4
REMARK    3  A    between atoms: _3  and  _6
REMARK    4  A    between atoms: _6  and  _7
REMARK    5  A    between atoms: _10  and  _12
REMARK    6  A    between atoms: _12  and  _13
REMARK    7  A    between atoms: _12  and  _15
REMARK    8  A    between atoms: _15  and  _16
REMARK    9  A    between atoms: _16  and  _17
REMARK   10  A    between atoms: _17  and  _18
REMARK   11  A    between atoms: _18  and  _19
REMARK   12  A    between atoms: _24  and  _25
REMARK   13  A    between atoms: _30  and  _32
REMARK   14  A    between atoms: _32  and  _33
REMARK   15  A    between atoms: _32  and  _35
REMARK   16  A    between atoms: _35  and  _36
REMARK   17  A    between atoms: _39  and  _41
REMARK   18  A    between atoms: _41  and  _42
REMARK   19  A    between atoms: _44  and  _46
REMARK   20  A    between atoms: _46  and  _47
REMARK   21  A    between atoms: _46  and  _49
REMARK   22  A    between atoms: _49  and  _50
REMARK   23  A    between atoms: _50  and  _51
REMARK   24  A    between atoms: _51  and  _52
REMARK   25  A    between atoms: _61  and  _63
REMARK   26  A    between atoms: _63  and  _64
REMARK   27  A    between atoms: _63  and  _66
REMARK   28  A    between atoms: _66  and  _67
REMARK   29  A    between atoms: _67  and  _68
REMARK   30  A    between atoms: _73  and  _75
REMARK   31  A    between atoms: _75  and  _76
REMARK   32  A    between atoms: _75  and  _78
REMARK   33  A    between atoms: _81  and  _83
REMARK   34  A    between atoms: _83  and  _84
REMARK   35  A    between atoms: _83  and  _86
REMARK   36  A    between atoms: _86  and  _87
REMARK   37  A    between atoms: _90  and  _92
REMARK   38  A    between atoms: _92  and  _93
REMARK   39  A    between atoms: _92  and  _95
REMARK   40  A    between atoms: _95  and  _96
REMARK   41  A    between atoms: _96  and  _97
REMARK   42  A    between atoms: _100  and  _102
REMARK   43  A    between atoms: _102  and  _103
REMARK   44  A    between atoms: _102  and  _105
REMARK   45  A    between atoms: _105  and  _106
REMARK   46  A    between atoms: _109  and  _111
REMARK   47  A    between atoms: _111  and  _112
REMARK   48  A    between atoms: _111  and  _114
REMARK   49  A    between atoms: _117  and  _119
REMARK   50  A    between atoms: _119  and  _120
REMARK   51  A    between atoms: _123  and  _125
REMARK   52  A    between atoms: _125  and  _126
REMARK   53  A    between atoms: _125  and  _128
REMARK   54  A    between atoms: _131  and  _133
REMARK   55  A    between atoms: _133  and  _134
REMARK   56  A    between atoms: _133  and  _136
REMARK   57  A    between atoms: _136  and  _137
REMARK   58  A    between atoms: _137  and  _138
REMARK   59  A    between atoms: _138  and  _139
REMARK   60  A    between atoms: _139  and  _140
REMARK   61  A    between atoms: _144  and  _146
REMARK   62  A    between atoms: _146  and  _147
REMARK   63  A    between atoms: _146  and  _149
REMARK   64  A    between atoms: _149  and  _150
REMARK   65  A    between atoms: _150  and  _151
REMARK   66  A    between atoms: _153  and  _155
REMARK   67  A    between atoms: _155  and  _156
REMARK   68  A    between atoms: _155  and  _158
REMARK   69  A    between atoms: _158  and  _159
REMARK   70  A    between atoms: _162  and  _164
REMARK   71  A    between atoms: _164  and  _165
REMARK   72  A    between atoms: _164  and  _167
REMARK   73  A    between atoms: _167  and  _168
REMARK   74  A    between atoms: _170  and  _172
REMARK   75  A    between atoms: _172  and  _173
REMARK   76  A    between atoms: _172  and  _175
REMARK   77  A    between atoms: _175  and  _176
REMARK   78  A    between atoms: _176  and  _177
REMARK   79  A    between atoms: _180  and  _182
REMARK   80  A    between atoms: _182  and  _183
REMARK   81  A    between atoms: _182  and  _185
REMARK   82  A    between atoms: _185  and  _186
REMARK   83  A    between atoms: _189  and  _191
REMARK   84  A    between atoms: _191  and  _192
REMARK   85  A    between atoms: _191  and  _194
REMARK   86  A    between atoms: _194  and  _195
REMARK   87  A    between atoms: _198  and  _200
REMARK   88  A    between atoms: _200  and  _201
REMARK   89  A    between atoms: _200  and  _203
REMARK   90  A    between atoms: _203  and  _204
REMARK   91  A    between atoms: _207  and  _209
REMARK   92  A    between atoms: _209  and  _210
REMARK   93  A    between atoms: _209  and  _212
REMARK   94  A    between atoms: _212  and  _213
REMARK   95  A    between atoms: _216  and  _218
REMARK   96  A    between atoms: _218  and  _219
REMARK   97  A    between atoms: _218  and  _221
REMARK   98  A    between atoms: _221  and  _222
REMARK   99  A    between atoms: _225  and  _227
REMARK  100  A    between atoms: _227  and  _228
REMARK  101  A    between atoms: _227  and  _230
REMARK  102  A    between atoms: _233  and  _235
REMARK  103  A    between atoms: _235  and  _236
REMARK  104  A    between atoms: _235  and  _238
REMARK  105  A    between atoms: _241  and  _243
REMARK  106  A    between atoms: _243  and  _244
REMARK  107  A    between atoms: _243  and  _246
REMARK  108  A    between atoms: _246  and  _247
REMARK  109  A    between atoms: _252  and  _254
REMARK  110  A    between atoms: _254  and  _255
REMARK  111  A    between atoms: _254  and  _257
REMARK  112  A    between atoms: _257  and  _258
REMARK  113  A    between atoms: _261  and  _263
REMARK  114  A    between atoms: _263  and  _264
REMARK  115  A    between atoms: _263  and  _266
REMARK  116  A    between atoms: _266  and  _267
REMARK  117  A    between atoms: _270  and  _272
REMARK  118  A    between atoms: _272  and  _273
REMARK  119  A    between atoms: _275  and  _277
REMARK  120  A    between atoms: _277  and  _278
REMARK  121  A    between atoms: _277  and  _280
REMARK  122  A    between atoms: _280  and  _281
REMARK  123  A    between atoms: _281  and  _282
REMARK  124  A    between atoms: _284  and  _286
REMARK  125  A    between atoms: _286  and  _287
REMARK  126  A    between atoms: _286  and  _289
REMARK  127  A    between atoms: _292  and  _294
REMARK  128  A    between atoms: _294  and  _295
REMARK  129  A    between atoms: _294  and  _297
REMARK  130  A    between atoms: _297  and  _298
REMARK  131  A    between atoms: _301  and  _303
REMARK  132  A    between atoms: _303  and  _304
REMARK  133  A    between atoms: _303  and  _306
REMARK  134  A    between atoms: _309  and  _311
REMARK  135  A    between atoms: _311  and  _312
REMARK  136  A    between atoms: _311  and  _314
REMARK  137  A    between atoms: _314  and  _315
REMARK  138  A    between atoms: _315  and  _316
REMARK  139  A    between atoms: _319  and  _321
REMARK  140  A    between atoms: _321  and  _322
REMARK  141  A    between atoms: _321  and  _324
REMARK  142  A    between atoms: _324  and  _325
REMARK  143  A    between atoms: _331  and  _333
REMARK  144  A    between atoms: _333  and  _334
REMARK  145  A    between atoms: _333  and  _336
REMARK  146  A    between atoms: _338  and  _340
REMARK  147  A    between atoms: _340  and  _341
REMARK  148  A    between atoms: _340  and  _343
REMARK  149  A    between atoms: _343  and  _344
REMARK  150  A    between atoms: _344  and  _345
REMARK  151  A    between atoms: _345  and  _346
REMARK  152  A    between atoms: _346  and  _347
REMARK  153  A    between atoms: _351  and  _353
REMARK  154  A    between atoms: _353  and  _354
REMARK  155  A    between atoms: _353  and  _356
REMARK  156  A    between atoms: _356  and  _357
REMARK  157  A    between atoms: _363  and  _365
REMARK  158  A    between atoms: _365  and  _366
REMARK  159  A    between atoms: _368  and  _370
REMARK  160  A    between atoms: _370  and  _371
REMARK  161  A    between atoms: _370  and  _373
REMARK  162  A    between atoms: _373  and  _374
REMARK  163  A    between atoms: _379  and  _381
REMARK  164  A    between atoms: _381  and  _382
REMARK  165  A    between atoms: _384  and  _386
REMARK  166  A    between atoms: _386  and  _387
REMARK  167  A    between atoms: _386  and  _389
REMARK  168  A    between atoms: _389  and  _390
REMARK  169  A    between atoms: _390  and  _391
REMARK  170  A    between atoms: _393  and  _395
REMARK  171  A    between atoms: _395  and  _396
REMARK  172  A    between atoms: _395  and  _398
REMARK  173  A    between atoms: _398  and  _399
REMARK  174  A    between atoms: _402  and  _404
REMARK  175  A    between atoms: _404  and  _405
REMARK  176  A    between atoms: _404  and  _407
REMARK  177  A    between atoms: _409  and  _411
REMARK  178  A    between atoms: _411  and  _412
REMARK  179  A    between atoms: _411  and  _414
REMARK  180  A    between atoms: _414  and  _415
REMARK  181  A    between atoms: _418  and  _420
REMARK  182  A    between atoms: _420  and  _421
REMARK  183  A    between atoms: _420  and  _423
REMARK  184  A    between atoms: _423  and  _424
REMARK  185  A    between atoms: _429  and  _431
REMARK  186  A    between atoms: _431  and  _432
REMARK  187  A    between atoms: _431  and  _434
REMARK  188  A    between atoms: _434  and  _435
REMARK  189  A    between atoms: _435  and  _436
REMARK  190  A    between atoms: _436  and  _437
REMARK  191  A    between atoms: _446  and  _448
REMARK  192  A    between atoms: _448  and  _449
REMARK  193  A    between atoms: _448  and  _451
REMARK  194  A    between atoms: _451  and  _452
REMARK  195  A    between atoms: _452  and  _453
REMARK  196  A    between atoms: _453  and  _454
REMARK  197  A    between atoms: _463  and  _465
REMARK  198  A    between atoms: _465  and  _466
REMARK  199  A    between atoms: _465  and  _468
REMARK  200  A    between atoms: _468  and  _469
REMARK  201  A    between atoms: _474  and  _476
REMARK  202  A    between atoms: _476  and  _477
REMARK  203  A    between atoms: _476  and  _479
REMARK  204  A    between atoms: _479  and  _480
REMARK  205  A    between atoms: _483  and  _485
REMARK  206  A    between atoms: _485  and  _486
REMARK  207  A    between atoms: _485  and  _488
REMARK  208  A    between atoms: _488  and  _489
REMARK  209  A    between atoms: _492  and  _494
REMARK  210  A    between atoms: _494  and  _495
REMARK  211  A    between atoms: _494  and  _497
REMARK  212  A    between atoms: _497  and  _498
REMARK  213  A    between atoms: _500  and  _502
REMARK  214  A    between atoms: _502  and  _503
REMARK  215  A    between atoms: _502  and  _505
REMARK  216  A    between atoms: _505  and  _506
REMARK  217  A    between atoms: _506  and  _507
REMARK  218  A    between atoms: _507  and  _508
REMARK  219  A    between atoms: _508  and  _509
REMARK  220  A    between atoms: _513  and  _515
REMARK  221  A    between atoms: _515  and  _516
REMARK  222  A    between atoms: _515  and  _518
REMARK  223  A    between atoms: _518  and  _519
REMARK  224  A    between atoms: _522  and  _524
REMARK  225  A    between atoms: _524  and  _525
REMARK  226  A    between atoms: _524  and  _527
REMARK  227  A    between atoms: _529  and  _531
REMARK  228  A    between atoms: _531  and  _532
REMARK  229  A    between atoms: _531  and  _534
REMARK  230  A    between atoms: _534  and  _535
REMARK  231  A    between atoms: _538  and  _540
REMARK  232  A    between atoms: _540  and  _541
REMARK  233  A    between atoms: _540  and  _543
REMARK  234  A    between atoms: _543  and  _544
REMARK  235  A    between atoms: _550  and  _552
REMARK  236  A    between atoms: _552  and  _553
REMARK  237  A    between atoms: _555  and  _557
REMARK  238  A    between atoms: _557  and  _558
REMARK  239  A    between atoms: _557  and  _560
REMARK  240  A    between atoms: _560  and  _561
REMARK  241  A    between atoms: _564  and  _566
REMARK  242  A    between atoms: _566  and  _567
REMARK  243  A    between atoms: _570  and  _572
REMARK  244  A    between atoms: _572  and  _573
REMARK  245  A    between atoms: _572  and  _575
REMARK  246  A    between atoms: _575  and  _576
REMARK  247  A    between atoms: _576  and  _577
REMARK  248  A    between atoms: _577  and  _578
REMARK                            x       y       z     vdW  Elec       q    Type
REMARK                         _______ _______ _______ _____ _____    ______ ____
ROOT
ATOM      1  O   HOH     1     -25.558   9.435 -17.152  0.00  0.00    +0.000 OA
ENDROOT
TORSDOF 0
REMARK  Name = ../refined-set-2016/4ase/4ase_pocket.pdb
REMARK  248 active torsions:
REMARK  status: ('A' for Active; 'I' for Inactive)
REMARK    1  A    between atoms: _1  and  _3
REMARK    2  A    between atoms: _3  and  _4
REMARK    3  A    between atoms: _3  and  _6
REMARK    4  A    between atoms: _6  and  _7
REMARK    5  A    between atoms: _10  and  _12
REMARK    6  A    between atoms: _12  and  _13
REMARK    7  A    between atoms: _12  and  _15
REMARK    8  A    between atoms: _15  and  _16
REMARK    9  A    between atoms: _16  and  _17
REMARK   10  A    between atoms: _17  and  _18
REMARK   11  A    between atoms: _18  and  _19
REMARK   12  A    between atoms: _24  and  _25
REMARK   13  A    between atoms: _30  and  _32
REMARK   14  A    between atoms: _32  and  _33
REMARK   15  A    between atoms: _32  and  _35
REMARK   16  A    between atoms: _35  and  _36
REMARK   17  A    between atoms: _39  and  _41
REMARK   18  A    between atoms: _41  and  _42
REMARK   19  A    between atoms: _44  and  _46
REMARK   20  A    between atoms: _46  and  _47
REMARK   21  A    between atoms: _46  and  _49
REMARK   22  A    between atoms: _49  and  _50
REMARK   23  A    between atoms: _50  and  _51
REMARK   24  A    between atoms: _51  and  _52
REMARK   25  A    between atoms: _61  and  _63
REMARK   26  A    between atoms: _63  and  _64
REMARK   27  A    between atoms: _63  and  _66
REMARK   28  A    between atoms: _66  and  _67
REMARK   29  A    between atoms: _67  and  _68
REMARK   30  A    between atoms: _73  and  _75
REMARK   31  A    between atoms: _75  and  _76
REMARK   32  A    between atoms: _75  and  _78
REMARK   33  A    between atoms: _81  and  _83
REMARK   34  A    between atoms: _83  and  _84
REMARK   35  A    between atoms: _83  and  _86
REMARK   36  A    between atoms: _86  and  _87
REMARK   37  A    between atoms: _90  and  _92
REMARK   38  A    between atoms: _92  and  _93
REMARK   39  A    between atoms: _92  and  _95
REMARK   40  A    between atoms: _95  and  _96
REMARK   41  A    between atoms: _96  and  _97
REMARK   42  A    between atoms: _100  and  _102
REMARK   43  A    between atoms: _102  and  _103
REMARK   44  A    between atoms: _102  and  _105
REMARK   45  A    between atoms: _105  and  _106
REMARK   46  A    between atoms: _109  and  _111
REMARK   47  A    between atoms: _111  and  _112
REMARK   48  A    between atoms: _111  and  _114
REMARK   49  A    between atoms: _117  and  _119
REMARK   50  A    between atoms: _119  and  _120
REMARK   51  A    between atoms: _123  and  _125
REMARK   52  A    between atoms: _125  and  _126
REMARK   53  A    between atoms: _125  and  _128
REMARK   54  A    between atoms: _131  and  _133
REMARK   55  A    between atoms: _133  and  _134
REMARK   56  A    between atoms: _133  and  _136
REMARK   57  A    between atoms: _136  and  _137
REMARK   58  A    between atoms: _137  and  _138
REMARK   59  A    between atoms: _138  and  _139
REMARK   60  A    between atoms: _139  and  _140
REMARK   61  A    between atoms: _144  and  _146
REMARK   62  A    between atoms: _146  and  _147
REMARK   63  A    between atoms: _146  and  _149
REMARK   64  A    between atoms: _149  and  _150
REMARK   65  A    between atoms: _150  and  _151
REMARK   66  A    between atoms: _153  and  _155
REMARK   67  A    between atoms: _155  and  _156
REMARK   68  A    between atoms: _155  and  _158
REMARK   69  A    between atoms: _158  and  _159
REMARK   70  A    between atoms: _162  and  _164
REMARK   71  A    between atoms: _164  and  _165
REMARK   72  A    between atoms: _164  and  _167
REMARK   73  A    between atoms: _167  and  _168
REMARK   74  A    between atoms: _170  and  _172
REMARK   75  A    between atoms: _172  and  _173
REMARK   76  A    between atoms: _172  and  _175
REMARK   77  A    between atoms: _175  and  _176
REMARK   78  A    between atoms: _176  and  _177
REMARK   79  A    between atoms: _180  and  _182
REMARK   80  A    between atoms: _182  and  _183
REMARK   81  A    between atoms: _182  and  _185
REMARK   82  A    between atoms: _185  and  _186
REMARK   83  A    between atoms: _189  and  _191
REMARK   84  A    between atoms: _191  and  _192
REMARK   85  A    between atoms: _191  and  _194
REMARK   86  A    between atoms: _194  and  _195
REMARK   87  A    between atoms: _198  and  _200
REMARK   88  A    between atoms: _200  and  _201
REMARK   89  A    between atoms: _200  and  _203
REMARK   90  A    between atoms: _203  and  _204
REMARK   91  A    between atoms: _207  and  _209
REMARK   92  A    between atoms: _209  and  _210
REMARK   93  A    between atoms: _209  and  _212
REMARK   94  A    between atoms: _212  and  _213
REMARK   95  A    between atoms: _216  and  _218
REMARK   96  A    between atoms: _218  and  _219
REMARK   97  A    between atoms: _218  and  _221
REMARK   98  A    between atoms: _221  and  _222
REMARK   99  A    between atoms: _225  and  _227
REMARK  100  A    between atoms: _227  and  _228
REMARK  101  A    between atoms: _227  and  _230
REMARK  102  A    between atoms: _233  and  _235
REMARK  103  A    between atoms: _235  and  _236
REMARK  104  A    between atoms: _235  and  _238
REMARK  105  A    between atoms: _241  and  _243
REMARK  106  A    between atoms: _243  and  _244
REMARK  107  A    between atoms: _243  and  _246
REMARK  108  A    between atoms: _246  and  _247
REMARK  109  A    between atoms: _252  and  _254
REMARK  110  A    between atoms: _254  and  _255
REMARK  111  A    between atoms: _254  and  _257
REMARK  112  A    between atoms: _257  and  _258
REMARK  113  A    between atoms: _261  and  _263
REMARK  114  A    between atoms: _263  and  _264
REMARK  115  A    between atoms: _263  and  _266
REMARK  116  A    between atoms: _266  and  _267
REMARK  117  A    between atoms: _270  and  _272
REMARK  118  A    between atoms: _272  and  _273
REMARK  119  A    between atoms: _275  and  _277
REMARK  120  A    between atoms: _277  and  _278
REMARK  121  A    between atoms: _277  and  _280
REMARK  122  A    between atoms: _280  and  _281
REMARK  123  A    between atoms: _281  and  _282
REMARK  124  A    between atoms: _284  and  _286
REMARK  125  A    between atoms: _286  and  _287
REMARK  126  A    between atoms: _286  and  _289
REMARK  127  A    between atoms: _292  and  _294
REMARK  128  A    between atoms: _294  and  _295
REMARK  129  A    between atoms: _294  and  _297
REMARK  130  A    between atoms: _297  and  _298
REMARK  131  A    between atoms: _301  and  _303
REMARK  132  A    between atoms: _303  and  _304
REMARK  133  A    between atoms: _303  and  _306
REMARK  134  A    between atoms: _309  and  _311
REMARK  135  A    between atoms: _311  and  _312
REMARK  136  A    between atoms: _311  and  _314
REMARK  137  A    between atoms: _314  and  _315
REMARK  138  A    between atoms: _315  and  _316
REMARK  139  A    between atoms: _319  and  _321
REMARK  140  A    between atoms: _321  and  _322
REMARK  141  A    between atoms: _321  and  _324
REMARK  142  A    between atoms: _324  and  _325
REMARK  143  A    between atoms: _331  and  _333
REMARK  144  A    between atoms: _333  and  _334
REMARK  145  A    between atoms: _333  and  _336
REMARK  146  A    between atoms: _338  and  _340
REMARK  147  A    between atoms: _340  and  _341
REMARK  148  A    between atoms: _340  and  _343
REMARK  149  A    between atoms: _343  and  _344
REMARK  150  A    between atoms: _344  and  _345
REMARK  151  A    between atoms: _345  and  _346
REMARK  152  A    between atoms: _346  and  _347
REMARK  153  A    between atoms: _351  and  _353
REMARK  154  A    between atoms: _353  and  _354
REMARK  155  A    between atoms: _353  and  _356
REMARK  156  A    between atoms: _356  and  _357
REMARK  157  A    between atoms: _363  and  _365
REMARK  158  A    between atoms: _365  and  _366
REMARK  159  A    between atoms: _368  and  _370
REMARK  160  A    between atoms: _370  and  _371
REMARK  161  A    between atoms: _370  and  _373
REMARK  162  A    between atoms: _373  and  _374
REMARK  163  A    between atoms: _379  and  _381
REMARK  164  A    between atoms: _381  and  _382
REMARK  165  A    between atoms: _384  and  _386
REMARK  166  A    between atoms: _386  and  _387
REMARK  167  A    between atoms: _386  and  _389
REMARK  168  A    between atoms: _389  and  _390
REMARK  169  A    between atoms: _390  and  _391
REMARK  170  A    between atoms: _393  and  _395
REMARK  171  A    between atoms: _395  and  _396
REMARK  172  A    between atoms: _395  and  _398
REMARK  173  A    between atoms: _398  and  _399
REMARK  174  A    between atoms: _402  and  _404
REMARK  175  A    between atoms: _404  and  _405
REMARK  176  A    between atoms: _404  and  _407
REMARK  177  A    between atoms: _409  and  _411
REMARK  178  A    between atoms: _411  and  _412
REMARK  179  A    between atoms: _411  and  _414
REMARK  180  A    between atoms: _414  and  _415
REMARK  181  A    between atoms: _418  and  _420
REMARK  182  A    between atoms: _420  and  _421
REMARK  183  A    between atoms: _420  and  _423
REMARK  184  A    between atoms: _423  and  _424
REMARK  185  A    between atoms: _429  and  _431
REMARK  186  A    between atoms: _431  and  _432
REMARK  187  A    between atoms: _431  and  _434
REMARK  188  A    between atoms: _434  and  _435
REMARK  189  A    between atoms: _435  and  _436
REMARK  190  A    between atoms: _436  and  _437
REMARK  191  A    between atoms: _446  and  _448
REMARK  192  A    between atoms: _448  and  _449
REMARK  193  A    between atoms: _448  and  _451
REMARK  194  A    between atoms: _451  and  _452
REMARK  195  A    between atoms: _452  and  _453
REMARK  196  A    between atoms: _453  and  _454
REMARK  197  A    between atoms: _463  and  _465
REMARK  198  A    between atoms: _465  and  _466
REMARK  199  A    between atoms: _465  and  _468
REMARK  200  A    between atoms: _468  and  _469
REMARK  201  A    between atoms: _474  and  _476
REMARK  202  A    between atoms: _476  and  _477
REMARK  203  A    between atoms: _476  and  _479
REMARK  204  A    between atoms: _479  and  _480
REMARK  205  A    between atoms: _483  and  _485
REMARK  206  A    between atoms: _485  and  _486
REMARK  207  A    between atoms: _485  and  _488
REMARK  208  A    between atoms: _488  and  _489
REMARK  209  A    between atoms: _492  and  _494
REMARK  210  A    between atoms: _494  and  _495
REMARK  211  A    between atoms: _494  and  _497
REMARK  212  A    between atoms: _497  and  _498
REMARK  213  A    between atoms: _500  and  _502
REMARK  214  A    between atoms: _502  and  _503
REMARK  215  A    between atoms: _502  and  _505
REMARK  216  A    between atoms: _505  and  _506
REMARK  217  A    between atoms: _506  and  _507
REMARK  218  A    between atoms: _507  and  _508
REMARK  219  A    between atoms: _508  and  _509
REMARK  220  A    between atoms: _513  and  _515
REMARK  221  A    between atoms: _515  and  _516
REMARK  222  A    between atoms: _515  and  _518
REMARK  223  A    between atoms: _518  and  _519
REMARK  224  A    between atoms: _522  and  _524
REMARK  225  A    between atoms: _524  and  _525
REMARK  226  A    between atoms: _524  and  _527
REMARK  227  A    between atoms: _529  and  _531
REMARK  228  A    between atoms: _531  and  _532
REMARK  229  A    between atoms: _531  and  _534
REMARK  230  A    between atoms: _534  and  _535
REMARK  231  A    between atoms: _538  and  _540
REMARK  232  A    between atoms: _540  and  _541
REMARK  233  A    between atoms: _540  and  _543
REMARK  234  A    between atoms: _543  and  _544
REMARK  235  A    between atoms: _550  and  _552
REMARK  236  A    between atoms: _552  and  _553
REMARK  237  A    between atoms: _555  and  _557
REMARK  238  A    between atoms: _557  and  _558
REMARK  239  A    between atoms: _557  and  _560
REMARK  240  A    between atoms: _560  and  _561
REMARK  241  A    between atoms: _564  and  _566
REMARK  242  A    between atoms: _566  and  _567
REMARK  243  A    between atoms: _570  and  _572
REMARK  244  A    between atoms: _572  and  _573
REMARK  245  A    between atoms: _572  and  _575
REMARK  246  A    between atoms: _575  and  _576
REMARK  247  A    between atoms: _576  and  _577
REMARK  248  A    between atoms: _577  and  _578
REMARK                            x       y       z     vdW  Elec       q    Type
REMARK                         _______ _______ _______ _____ _____    ______ ____
ROOT
ATOM      1  O   HOH     1     -25.622  -8.671 -11.306  0.00  0.00    +0.000 OA
ENDROOT
TORSDOF 0
REMARK  Name = ../refined-set-2016/4ase/4ase_pocket.pdb
REMARK  248 active torsions:
REMARK  status: ('A' for Active; 'I' for Inactive)
REMARK    1  A    between atoms: _1  and  _3
REMARK    2  A    between atoms: _3  and  _4
REMARK    3  A    between atoms: _3  and  _6
REMARK    4  A    between atoms: _6  and  _7
REMARK    5  A    between atoms: _10  and  _12
REMARK    6  A    between atoms: _12  and  _13
REMARK    7  A    between atoms: _12  and  _15
REMARK    8  A    between atoms: _15  and  _16
REMARK    9  A    between atoms: _16  and  _17
REMARK   10  A    between atoms: _17  and  _18
REMARK   11  A    between atoms: _18  and  _19
REMARK   12  A    between atoms: _24  and  _25
REMARK   13  A    between atoms: _30  and  _32
REMARK   14  A    between atoms: _32  and  _33
REMARK   15  A    between atoms: _32  and  _35
REMARK   16  A    between atoms: _35  and  _36
REMARK   17  A    between atoms: _39  and  _41
REMARK   18  A    between atoms: _41  and  _42
REMARK   19  A    between atoms: _44  and  _46
REMARK   20  A    between atoms: _46  and  _47
REMARK   21  A    between atoms: _46  and  _49
REMARK   22  A    between atoms: _49  and  _50
REMARK   23  A    between atoms: _50  and  _51
REMARK   24  A    between atoms: _51  and  _52
REMARK   25  A    between atoms: _61  and  _63
REMARK   26  A    between atoms: _63  and  _64
REMARK   27  A    between atoms: _63  and  _66
REMARK   28  A    between atoms: _66  and  _67
REMARK   29  A    between atoms: _67  and  _68
REMARK   30  A    between atoms: _73  and  _75
REMARK   31  A    between atoms: _75  and  _76
REMARK   32  A    between atoms: _75  and  _78
REMARK   33  A    between atoms: _81  and  _83
REMARK   34  A    between atoms: _83  and  _84
REMARK   35  A    between atoms: _83  and  _86
REMARK   36  A    between atoms: _86  and  _87
REMARK   37  A    between atoms: _90  and  _92
REMARK   38  A    between atoms: _92  and  _93
REMARK   39  A    between atoms: _92  and  _95
REMARK   40  A    between atoms: _95  and  _96
REMARK   41  A    between atoms: _96  and  _97
REMARK   42  A    between atoms: _100  and  _102
REMARK   43  A    between atoms: _102  and  _103
REMARK   44  A    between atoms: _102  and  _105
REMARK   45  A    between atoms: _105  and  _106
REMARK   46  A    between atoms: _109  and  _111
REMARK   47  A    between atoms: _111  and  _112
REMARK   48  A    between atoms: _111  and  _114
REMARK   49  A    between atoms: _117  and  _119
REMARK   50  A    between atoms: _119  and  _120
REMARK   51  A    between atoms: _123  and  _125
REMARK   52  A    between atoms: _125  and  _126
REMARK   53  A    between atoms: _125  and  _128
REMARK   54  A    between atoms: _131  and  _133
REMARK   55  A    between atoms: _133  and  _134
REMARK   56  A    between atoms: _133  and  _136
REMARK   57  A    between atoms: _136  and  _137
REMARK   58  A    between atoms: _137  and  _138
REMARK   59  A    between atoms: _138  and  _139
REMARK   60  A    between atoms: _139  and  _140
REMARK   61  A    between atoms: _144  and  _146
REMARK   62  A    between atoms: _146  and  _147
REMARK   63  A    between atoms: _146  and  _149
REMARK   64  A    between atoms: _149  and  _150
REMARK   65  A    between atoms: _150  and  _151
REMARK   66  A    between atoms: _153  and  _155
REMARK   67  A    between atoms: _155  and  _156
REMARK   68  A    between atoms: _155  and  _158
REMARK   69  A    between atoms: _158  and  _159
REMARK   70  A    between atoms: _162  and  _164
REMARK   71  A    between atoms: _164  and  _165
REMARK   72  A    between atoms: _164  and  _167
REMARK   73  A    between atoms: _167  and  _168
REMARK   74  A    between atoms: _170  and  _172
REMARK   75  A    between atoms: _172  and  _173
REMARK   76  A    between atoms: _172  and  _175
REMARK   77  A    between atoms: _175  and  _176
REMARK   78  A    between atoms: _176  and  _177
REMARK   79  A    between atoms: _180  and  _182
REMARK   80  A    between atoms: _182  and  _183
REMARK   81  A    between atoms: _182  and  _185
REMARK   82  A    between atoms: _185  and  _186
REMARK   83  A    between atoms: _189  and  _191
REMARK   84  A    between atoms: _191  and  _192
REMARK   85  A    between atoms: _191  and  _194
REMARK   86  A    between atoms: _194  and  _195
REMARK   87  A    between atoms: _198  and  _200
REMARK   88  A    between atoms: _200  and  _201
REMARK   89  A    between atoms: _200  and  _203
REMARK   90  A    between atoms: _203  and  _204
REMARK   91  A    between atoms: _207  and  _209
REMARK   92  A    between atoms: _209  and  _210
REMARK   93  A    between atoms: _209  and  _212
REMARK   94  A    between atoms: _212  and  _213
REMARK   95  A    between atoms: _216  and  _218
REMARK   96  A    between atoms: _218  and  _219
REMARK   97  A    between atoms: _218  and  _221
REMARK   98  A    between atoms: _221  and  _222
REMARK   99  A    between atoms: _225  and  _227
REMARK  100  A    between atoms: _227  and  _228
REMARK  101  A    between atoms: _227  and  _230
REMARK  102  A    between atoms: _233  and  _235
REMARK  103  A    between atoms: _235  and  _236
REMARK  104  A    between atoms: _235  and  _238
REMARK  105  A    between atoms: _241  and  _243
REMARK  106  A    between atoms: _243  and  _244
REMARK  107  A    between atoms: _243  and  _246
REMARK  108  A    between atoms: _246  and  _247
REMARK  109  A    between atoms: _252  and  _254
REMARK  110  A    between atoms: _254  and  _255
REMARK  111  A    between atoms: _254  and  _257
REMARK  112  A    between atoms: _257  and  _258
REMARK  113  A    between atoms: _261  and  _263
REMARK  114  A    between atoms: _263  and  _264
REMARK  115  A    between atoms: _263  and  _266
REMARK  116  A    between atoms: _266  and  _267
REMARK  117  A    between atoms: _270  and  _272
REMARK  118  A    between atoms: _272  and  _273
REMARK  119  A    between atoms: _275  and  _277
REMARK  120  A    between atoms: _277  and  _278
REMARK  121  A    between atoms: _277  and  _280
REMARK  122  A    between atoms: _280  and  _281
REMARK  123  A    between atoms: _281  and  _282
REMARK  124  A    between atoms: _284  and  _286
REMARK  125  A    between atoms: _286  and  _287
REMARK  126  A    between atoms: _286  and  _289
REMARK  127  A    between atoms: _292  and  _294
REMARK  128  A    between atoms: _294  and  _295
REMARK  129  A    between atoms: _294  and  _297
REMARK  130  A    between atoms: _297  and  _298
REMARK  131  A    between atoms: _301  and  _303
REMARK  132  A    between atoms: _303  and  _304
REMARK  133  A    between atoms: _303  and  _306
REMARK  134  A    between atoms: _309  and  _311
REMARK  135  A    between atoms: _311  and  _312
REMARK  136  A    between atoms: _311  and  _314
REMARK  137  A    between atoms: _314  and  _315
REMARK  138  A    between atoms: _315  and  _316
REMARK  139  A    between atoms: _319  and  _321
REMARK  140  A    between atoms: _321  and  _322
REMARK  141  A    between atoms: _321  and  _324
REMARK  142  A    between atoms: _324  and  _325
REMARK  143  A    between atoms: _331  and  _333
REMARK  144  A    between atoms: _333  and  _334
REMARK  145  A    between atoms: _333  and  _336
REMARK  146  A    between atoms: _338  and  _340
REMARK  147  A    between atoms: _340  and  _341
REMARK  148  A    between atoms: _340  and  _343
REMARK  149  A    between atoms: _343  and  _344
REMARK  150  A    between atoms: _344  and  _345
REMARK  151  A    between atoms: _345  and  _346
REMARK  152  A    between atoms: _346  and  _347
REMARK  153  A    between atoms: _351  and  _353
REMARK  154  A    between atoms: _353  and  _354
REMARK  155  A    between atoms: _353  and  _356
REMARK  156  A    between atoms: _356  and  _357
REMARK  157  A    between atoms: _363  and  _365
REMARK  158  A    between atoms: _365  and  _366
REMARK  159  A    between atoms: _368  and  _370
REMARK  160  A    between atoms: _370  and  _371
REMARK  161  A    between atoms: _370  and  _373
REMARK  162  A    between atoms: _373  and  _374
REMARK  163  A    between atoms: _379  and  _381
REMARK  164  A    between atoms: _381  and  _382
REMARK  165  A    between atoms: _384  and  _386
REMARK  166  A    between atoms: _386  and  _387
REMARK  167  A    between atoms: _386  and  _389
REMARK  168  A    between atoms: _389  and  _390
REMARK  169  A    between atoms: _390  and  _391
REMARK  170  A    between atoms: _393  and  _395
REMARK  171  A    between atoms: _395  and  _396
REMARK  172  A    between atoms: _395  and  _398
REMARK  173  A    between atoms: _398  and  _399
REMARK  174  A    between atoms: _402  and  _404
REMARK  175  A    between atoms: _404  and  _405
REMARK  176  A    between atoms: _404  and  _407
REMARK  177  A    between atoms: _409  and  _411
REMARK  178  A    between atoms: _411  and  _412
REMARK  179  A    between atoms: _411  and  _414
REMARK  180  A    between atoms: _414  and  _415
REMARK  181  A    between atoms: _418  and  _420
REMARK  182  A    between atoms: _420  and  _421
REMARK  183  A    between atoms: _420  and  _423
REMARK  184  A    between atoms: _423  and  _424
REMARK  185  A    between atoms: _429  and  _431
REMARK  186  A    between atoms: _431  and  _432
REMARK  187  A    between atoms: _431  and  _434
REMARK  188  A    between atoms: _434  and  _435
REMARK  189  A    between atoms: _435  and  _436
REMARK  190  A    between atoms: _436  and  _437
REMARK  191  A    between atoms: _446  and  _448
REMARK  192  A    between atoms: _448  and  _449
REMARK  193  A    between atoms: _448  and  _451
REMARK  194  A    between atoms: _451  and  _452
REMARK  195  A    between atoms: _452  and  _453
REMARK  196  A    between atoms: _453  and  _454
REMARK  197  A    between atoms: _463  and  _465
REMARK  198  A    between atoms: _465  and  _466
REMARK  199  A    between atoms: _465  and  _468
REMARK  200  A    between atoms: _468  and  _469
REMARK  201  A    between atoms: _474  and  _476
REMARK  202  A    between atoms: _476  and  _477
REMARK  203  A    between atoms: _476  and  _479
REMARK  204  A    between atoms: _479  and  _480
REMARK  205  A    between atoms: _483  and  _485
REMARK  206  A    between atoms: _485  and  _486
REMARK  207  A    between atoms: _485  and  _488
REMARK  208  A    between atoms: _488  and  _489
REMARK  209  A    between atoms: _492  and  _494
REMARK  210  A    between atoms: _494  and  _495
REMARK  211  A    between atoms: _494  and  _497
REMARK  212  A    between atoms: _497  and  _498
REMARK  213  A    between atoms: _500  and  _502
REMARK  214  A    between atoms: _502  and  _503
REMARK  215  A    between atoms: _502  and  _505
REMARK  216  A    between atoms: _505  and  _506
REMARK  217  A    between atoms: _506  and  _507
REMARK  218  A    between atoms: _507  and  _508
REMARK  219  A    between atoms: _508  and  _509
REMARK  220  A    between atoms: _513  and  _515
REMARK  221  A    between atoms: _515  and  _516
REMARK  222  A    between atoms: _515  and  _518
REMARK  223  A    between atoms: _518  and  _519
REMARK  224  A    between atoms: _522  and  _524
REMARK  225  A    between atoms: _524  and  _525
REMARK  226  A    between atoms: _524  and  _527
REMARK  227  A    between atoms: _529  and  _531
REMARK  228  A    between atoms: _531  and  _532
REMARK  229  A    between atoms: _531  and  _534
REMARK  230  A    between atoms: _534  and  _535
REMARK  231  A    between atoms: _538  and  _540
REMARK  232  A    between atoms: _540  and  _541
REMARK  233  A    between atoms: _540  and  _543
REMARK  234  A    between atoms: _543  and  _544
REMARK  235  A    between atoms: _550  and  _552
REMARK  236  A    between atoms: _552  and  _553
REMARK  237  A    between atoms: _555  and  _557
REMARK  238  A    between atoms: _557  and  _558
REMARK  239  A    between atoms: _557  and  _560
REMARK  240  A    between atoms: _560  and  _561
REMARK  241  A    between atoms: _564  and  _566
REMARK  242  A    between atoms: _566  and  _567
REMARK  243  A    between atoms: _570  and  _572
REMARK  244  A    between atoms: _572  and  _573
REMARK  245  A    between atoms: _572  and  _575
REMARK  246  A    between atoms: _575  and  _576
REMARK  247  A    between atoms: _576  and  _577
REMARK  248  A    between atoms: _577  and  _578
REMARK                            x       y       z     vdW  Elec       q    Type
REMARK                         _______ _______ _______ _____ _____    ______ ____
ROOT
ATOM      1  O   HOH     1     -26.417  -6.909  -8.900  0.00  0.00    +0.000 OA
ENDROOT
TORSDOF 0
REMARK  Name = ../refined-set-2016/4ase/4ase_pocket.pdb
REMARK  248 active torsions:
REMARK  status: ('A' for Active; 'I' for Inactive)
REMARK    1  A    between atoms: _1  and  _3
REMARK    2  A    between atoms: _3  and  _4
REMARK    3  A    between atoms: _3  and  _6
REMARK    4  A    between atoms: _6  and  _7
REMARK    5  A    between atoms: _10  and  _12
REMARK    6  A    between atoms: _12  and  _13
REMARK    7  A    between atoms: _12  and  _15
REMARK    8  A    between atoms: _15  and  _16
REMARK    9  A    between atoms: _16  and  _17
REMARK   10  A    between atoms: _17  and  _18
REMARK   11  A    between atoms: _18  and  _19
REMARK   12  A    between atoms: _24  and  _25
REMARK   13  A    between atoms: _30  and  _32
REMARK   14  A    between atoms: _32  and  _33
REMARK   15  A    between atoms: _32  and  _35
REMARK   16  A    between atoms: _35  and  _36
REMARK   17  A    between atoms: _39  and  _41
REMARK   18  A    between atoms: _41  and  _42
REMARK   19  A    between atoms: _44  and  _46
REMARK   20  A    between atoms: _46  and  _47
REMARK   21  A    between atoms: _46  and  _49
REMARK   22  A    between atoms: _49  and  _50
REMARK   23  A    between atoms: _50  and  _51
REMARK   24  A    between atoms: _51  and  _52
REMARK   25  A    between atoms: _61  and  _63
REMARK   26  A    between atoms: _63  and  _64
REMARK   27  A    between atoms: _63  and  _66
REMARK   28  A    between atoms: _66  and  _67
REMARK   29  A    between atoms: _67  and  _68
REMARK   30  A    between atoms: _73  and  _75
REMARK   31  A    between atoms: _75  and  _76
REMARK   32  A    between atoms: _75  and  _78
REMARK   33  A    between atoms: _81  and  _83
REMARK   34  A    between atoms: _83  and  _84
REMARK   35  A    between atoms: _83  and  _86
REMARK   36  A    between atoms: _86  and  _87
REMARK   37  A    between atoms: _90  and  _92
REMARK   38  A    between atoms: _92  and  _93
REMARK   39  A    between atoms: _92  and  _95
REMARK   40  A    between atoms: _95  and  _96
REMARK   41  A    between atoms: _96  and  _97
REMARK   42  A    between atoms: _100  and  _102
REMARK   43  A    between atoms: _102  and  _103
REMARK   44  A    between atoms: _102  and  _105
REMARK   45  A    between atoms: _105  and  _106
REMARK   46  A    between atoms: _109  and  _111
REMARK   47  A    between atoms: _111  and  _112
REMARK   48  A    between atoms: _111  and  _114
REMARK   49  A    between atoms: _117  and  _119
REMARK   50  A    between atoms: _119  and  _120
REMARK   51  A    between atoms: _123  and  _125
REMARK   52  A    between atoms: _125  and  _126
REMARK   53  A    between atoms: _125  and  _128
REMARK   54  A    between atoms: _131  and  _133
REMARK   55  A    between atoms: _133  and  _134
REMARK   56  A    between atoms: _133  and  _136
REMARK   57  A    between atoms: _136  and  _137
REMARK   58  A    between atoms: _137  and  _138
REMARK   59  A    between atoms: _138  and  _139
REMARK   60  A    between atoms: _139  and  _140
REMARK   61  A    between atoms: _144  and  _146
REMARK   62  A    between atoms: _146  and  _147
REMARK   63  A    between atoms: _146  and  _149
REMARK   64  A    between atoms: _149  and  _150
REMARK   65  A    between atoms: _150  and  _151
REMARK   66  A    between atoms: _153  and  _155
REMARK   67  A    between atoms: _155  and  _156
REMARK   68  A    between atoms: _155  and  _158
REMARK   69  A    between atoms: _158  and  _159
REMARK   70  A    between atoms: _162  and  _164
REMARK   71  A    between atoms: _164  and  _165
REMARK   72  A    between atoms: _164  and  _167
REMARK   73  A    between atoms: _167  and  _168
REMARK   74  A    between atoms: _170  and  _172
REMARK   75  A    between atoms: _172  and  _173
REMARK   76  A    between atoms: _172  and  _175
REMARK   77  A    between atoms: _175  and  _176
REMARK   78  A    between atoms: _176  and  _177
REMARK   79  A    between atoms: _180  and  _182
REMARK   80  A    between atoms: _182  and  _183
REMARK   81  A    between atoms: _182  and  _185
REMARK   82  A    between atoms: _185  and  _186
REMARK   83  A    between atoms: _189  and  _191
REMARK   84  A    between atoms: _191  and  _192
REMARK   85  A    between atoms: _191  and  _194
REMARK   86  A    between atoms: _194  and  _195
REMARK   87  A    between atoms: _198  and  _200
REMARK   88  A    between atoms: _200  and  _201
REMARK   89  A    between atoms: _200  and  _203
REMARK   90  A    between atoms: _203  and  _204
REMARK   91  A    between atoms: _207  and  _209
REMARK   92  A    between atoms: _209  and  _210
REMARK   93  A    between atoms: _209  and  _212
REMARK   94  A    between atoms: _212  and  _213
REMARK   95  A    between atoms: _216  and  _218
REMARK   96  A    between atoms: _218  and  _219
REMARK   97  A    between atoms: _218  and  _221
REMARK   98  A    between atoms: _221  and  _222
REMARK   99  A    between atoms: _225  and  _227
REMARK  100  A    between atoms: _227  and  _228
REMARK  101  A    between atoms: _227  and  _230
REMARK  102  A    between atoms: _233  and  _235
REMARK  103  A    between atoms: _235  and  _236
REMARK  104  A    between atoms: _235  and  _238
REMARK  105  A    between atoms: _241  and  _243
REMARK  106  A    between atoms: _243  and  _244
REMARK  107  A    between atoms: _243  and  _246
REMARK  108  A    between atoms: _246  and  _247
REMARK  109  A    between atoms: _252  and  _254
REMARK  110  A    between atoms: _254  and  _255
REMARK  111  A    between atoms: _254  and  _257
REMARK  112  A    between atoms: _257  and  _258
REMARK  113  A    between atoms: _261  and  _263
REMARK  114  A    between atoms: _263  and  _264
REMARK  115  A    between atoms: _263  and  _266
REMARK  116  A    between atoms: _266  and  _267
REMARK  117  A    between atoms: _270  and  _272
REMARK  118  A    between atoms: _272  and  _273
REMARK  119  A    between atoms: _275  and  _277
REMARK  120  A    between atoms: _277  and  _278
REMARK  121  A    between atoms: _277  and  _280
REMARK  122  A    between atoms: _280  and  _281
REMARK  123  A    between atoms: _281  and  _282
REMARK  124  A    between atoms: _284  and  _286
REMARK  125  A    between atoms: _286  and  _287
REMARK  126  A    between atoms: _286  and  _289
REMARK  127  A    between atoms: _292  and  _294
REMARK  128  A    between atoms: _294  and  _295
REMARK  129  A    between atoms: _294  and  _297
REMARK  130  A    between atoms: _297  and  _298
REMARK  131  A    between atoms: _301  and  _303
REMARK  132  A    between atoms: _303  and  _304
REMARK  133  A    between atoms: _303  and  _306
REMARK  134  A    between atoms: _309  and  _311
REMARK  135  A    between atoms: _311  and  _312
REMARK  136  A    between atoms: _311  and  _314
REMARK  137  A    between atoms: _314  and  _315
REMARK  138  A    between atoms: _315  and  _316
REMARK  139  A    between atoms: _319  and  _321
REMARK  140  A    between atoms: _321  and  _322
REMARK  141  A    between atoms: _321  and  _324
REMARK  142  A    between atoms: _324  and  _325
REMARK  143  A    between atoms: _331  and  _333
REMARK  144  A    between atoms: _333  and  _334
REMARK  145  A    between atoms: _333  and  _336
REMARK  146  A    between atoms: _338  and  _340
REMARK  147  A    between atoms: _340  and  _341
REMARK  148  A    between atoms: _340  and  _343
REMARK  149  A    between atoms: _343  and  _344
REMARK  150  A    between atoms: _344  and  _345
REMARK  151  A    between atoms: _345  and  _346
REMARK  152  A    between atoms: _346  and  _347
REMARK  153  A    between atoms: _351  and  _353
REMARK  154  A    between atoms: _353  and  _354
REMARK  155  A    between atoms: _353  and  _356
REMARK  156  A    between atoms: _356  and  _357
REMARK  157  A    between atoms: _363  and  _365
REMARK  158  A    between atoms: _365  and  _366
REMARK  159  A    between atoms: _368  and  _370
REMARK  160  A    between atoms: _370  and  _371
REMARK  161  A    between atoms: _370  and  _373
REMARK  162  A    between atoms: _373  and  _374
REMARK  163  A    between atoms: _379  and  _381
REMARK  164  A    between atoms: _381  and  _382
REMARK  165  A    between atoms: _384  and  _386
REMARK  166  A    between atoms: _386  and  _387
REMARK  167  A    between atoms: _386  and  _389
REMARK  168  A    between atoms: _389  and  _390
REMARK  169  A    between atoms: _390  and  _391
REMARK  170  A    between atoms: _393  and  _395
REMARK  171  A    between atoms: _395  and  _396
REMARK  172  A    between atoms: _395  and  _398
REMARK  173  A    between atoms: _398  and  _399
REMARK  174  A    between atoms: _402  and  _404
REMARK  175  A    between atoms: _404  and  _405
REMARK  176  A    between atoms: _404  and  _407
REMARK  177  A    between atoms: _409  and  _411
REMARK  178  A    between atoms: _411  and  _412
REMARK  179  A    between atoms: _411  and  _414
REMARK  180  A    between atoms: _414  and  _415
REMARK  181  A    between atoms: _418  and  _420
REMARK  182  A    between atoms: _420  and  _421
REMARK  183  A    between atoms: _420  and  _423
REMARK  184  A    between atoms: _423  and  _424
REMARK  185  A    between atoms: _429  and  _431
REMARK  186  A    between atoms: _431  and  _432
REMARK  187  A    between atoms: _431  and  _434
REMARK  188  A    between atoms: _434  and  _435
REMARK  189  A    between atoms: _435  and  _436
REMARK  190  A    between atoms: _436  and  _437
REMARK  191  A    between atoms: _446  and  _448
REMARK  192  A    between atoms: _448  and  _449
REMARK  193  A    between atoms: _448  and  _451
REMARK  194  A    between atoms: _451  and  _452
REMARK  195  A    between atoms: _452  and  _453
REMARK  196  A    between atoms: _453  and  _454
REMARK  197  A    between atoms: _463  and  _465
REMARK  198  A    between atoms: _465  and  _466
REMARK  199  A    between atoms: _465  and  _468
REMARK  200  A    between atoms: _468  and  _469
REMARK  201  A    between atoms: _474  and  _476
REMARK  202  A    between atoms: _476  and  _477
REMARK  203  A    between atoms: _476  and  _479
REMARK  204  A    between atoms: _479  and  _480
REMARK  205  A    between atoms: _483  and  _485
REMARK  206  A    between atoms: _485  and  _486
REMARK  207  A    between atoms: _485  and  _488
REMARK  208  A    between atoms: _488  and  _489
REMARK  209  A    between atoms: _492  and  _494
REMARK  210  A    between atoms: _494  and  _495
REMARK  211  A    between atoms: _494  and  _497
REMARK  212  A    between atoms: _497  and  _498
REMARK  213  A    between atoms: _500  and  _502
REMARK  214  A    between atoms: _502  and  _503
REMARK  215  A    between atoms: _502  and  _505
REMARK  216  A    between atoms: _505  and  _506
REMARK  217  A    between atoms: _506  and  _507
REMARK  218  A    between atoms: _507  and  _508
REMARK  219  A    between atoms: _508  and  _509
REMARK  220  A    between atoms: _513  and  _515
REMARK  221  A    between atoms: _515  and  _516
REMARK  222  A    between atoms: _515  and  _518
REMARK  223  A    between atoms: _518  and  _519
REMARK  224  A    between atoms: _522  and  _524
REMARK  225  A    between atoms: _524  and  _525
REMARK  226  A    between atoms: _524  and  _527
REMARK  227  A    between atoms: _529  and  _531
REMARK  228  A    between atoms: _531  and  _532
REMARK  229  A    between atoms: _531  and  _534
REMARK  230  A    between atoms: _534  and  _535
REMARK  231  A    between atoms: _538  and  _540
REMARK  232  A    between atoms: _540  and  _541
REMARK  233  A    between atoms: _540  and  _543
REMARK  234  A    between atoms: _543  and  _544
REMARK  235  A    between atoms: _550  and  _552
REMARK  236  A    between atoms: _552  and  _553
REMARK  237  A    between atoms: _555  and  _557
REMARK  238  A    between atoms: _557  and  _558
REMARK  239  A    between atoms: _557  and  _560
REMARK  240  A    between atoms: _560  and  _561
REMARK  241  A    between atoms: _564  and  _566
REMARK  242  A    between atoms: _566  and  _567
REMARK  243  A    between atoms: _570  and  _572
REMARK  244  A    between atoms: _572  and  _573
REMARK  245  A    between atoms: _572  and  _575
REMARK  246  A    between atoms: _575  and  _576
REMARK  247  A    between atoms: _576  and  _577
REMARK  248  A    between atoms: _577  and  _578
REMARK                            x       y       z     vdW  Elec       q    Type
REMARK                         _______ _______ _______ _____ _____    ______ ____
ROOT
ATOM      1  O   HOH     1     -30.928 -10.625  -8.737  0.00  0.00    +0.000 OA
ENDROOT
TORSDOF 0
REMARK  Name = ../refined-set-2016/4ase/4ase_pocket.pdb
REMARK  248 active torsions:
REMARK  status: ('A' for Active; 'I' for Inactive)
REMARK    1  A    between atoms: _1  and  _3
REMARK    2  A    between atoms: _3  and  _4
REMARK    3  A    between atoms: _3  and  _6
REMARK    4  A    between atoms: _6  and  _7
REMARK    5  A    between atoms: _10  and  _12
REMARK    6  A    between atoms: _12  and  _13
REMARK    7  A    between atoms: _12  and  _15
REMARK    8  A    between atoms: _15  and  _16
REMARK    9  A    between atoms: _16  and  _17
REMARK   10  A    between atoms: _17  and  _18
REMARK   11  A    between atoms: _18  and  _19
REMARK   12  A    between atoms: _24  and  _25
REMARK   13  A    between atoms: _30  and  _32
REMARK   14  A    between atoms: _32  and  _33
REMARK   15  A    between atoms: _32  and  _35
REMARK   16  A    between atoms: _35  and  _36
REMARK   17  A    between atoms: _39  and  _41
REMARK   18  A    between atoms: _41  and  _42
REMARK   19  A    between atoms: _44  and  _46
REMARK   20  A    between atoms: _46  and  _47
REMARK   21  A    between atoms: _46  and  _49
REMARK   22  A    between atoms: _49  and  _50
REMARK   23  A    between atoms: _50  and  _51
REMARK   24  A    between atoms: _51  and  _52
REMARK   25  A    between atoms: _61  and  _63
REMARK   26  A    between atoms: _63  and  _64
REMARK   27  A    between atoms: _63  and  _66
REMARK   28  A    between atoms: _66  and  _67
REMARK   29  A    between atoms: _67  and  _68
REMARK   30  A    between atoms: _73  and  _75
REMARK   31  A    between atoms: _75  and  _76
REMARK   32  A    between atoms: _75  and  _78
REMARK   33  A    between atoms: _81  and  _83
REMARK   34  A    between atoms: _83  and  _84
REMARK   35  A    between atoms: _83  and  _86
REMARK   36  A    between atoms: _86  and  _87
REMARK   37  A    between atoms: _90  and  _92
REMARK   38  A    between atoms: _92  and  _93
REMARK   39  A    between atoms: _92  and  _95
REMARK   40  A    between atoms: _95  and  _96
REMARK   41  A    between atoms: _96  and  _97
REMARK   42  A    between atoms: _100  and  _102
REMARK   43  A    between atoms: _102  and  _103
REMARK   44  A    between atoms: _102  and  _105
REMARK   45  A    between atoms: _105  and  _106
REMARK   46  A    between atoms: _109  and  _111
REMARK   47  A    between atoms: _111  and  _112
REMARK   48  A    between atoms: _111  and  _114
REMARK   49  A    between atoms: _117  and  _119
REMARK   50  A    between atoms: _119  and  _120
REMARK   51  A    between atoms: _123  and  _125
REMARK   52  A    between atoms: _125  and  _126
REMARK   53  A    between atoms: _125  and  _128
REMARK   54  A    between atoms: _131  and  _133
REMARK   55  A    between atoms: _133  and  _134
REMARK   56  A    between atoms: _133  and  _136
REMARK   57  A    between atoms: _136  and  _137
REMARK   58  A    between atoms: _137  and  _138
REMARK   59  A    between atoms: _138  and  _139
REMARK   60  A    between atoms: _139  and  _140
REMARK   61  A    between atoms: _144  and  _146
REMARK   62  A    between atoms: _146  and  _147
REMARK   63  A    between atoms: _146  and  _149
REMARK   64  A    between atoms: _149  and  _150
REMARK   65  A    between atoms: _150  and  _151
REMARK   66  A    between atoms: _153  and  _155
REMARK   67  A    between atoms: _155  and  _156
REMARK   68  A    between atoms: _155  and  _158
REMARK   69  A    between atoms: _158  and  _159
REMARK   70  A    between atoms: _162  and  _164
REMARK   71  A    between atoms: _164  and  _165
REMARK   72  A    between atoms: _164  and  _167
REMARK   73  A    between atoms: _167  and  _168
REMARK   74  A    between atoms: _170  and  _172
REMARK   75  A    between atoms: _172  and  _173
REMARK   76  A    between atoms: _172  and  _175
REMARK   77  A    between atoms: _175  and  _176
REMARK   78  A    between atoms: _176  and  _177
REMARK   79  A    between atoms: _180  and  _182
REMARK   80  A    between atoms: _182  and  _183
REMARK   81  A    between atoms: _182  and  _185
REMARK   82  A    between atoms: _185  and  _186
REMARK   83  A    between atoms: _189  and  _191
REMARK   84  A    between atoms: _191  and  _192
REMARK   85  A    between atoms: _191  and  _194
REMARK   86  A    between atoms: _194  and  _195
REMARK   87  A    between atoms: _198  and  _200
REMARK   88  A    between atoms: _200  and  _201
REMARK   89  A    between atoms: _200  and  _203
REMARK   90  A    between atoms: _203  and  _204
REMARK   91  A    between atoms: _207  and  _209
REMARK   92  A    between atoms: _209  and  _210
REMARK   93  A    between atoms: _209  and  _212
REMARK   94  A    between atoms: _212  and  _213
REMARK   95  A    between atoms: _216  and  _218
REMARK   96  A    between atoms: _218  and  _219
REMARK   97  A    between atoms: _218  and  _221
REMARK   98  A    between atoms: _221  and  _222
REMARK   99  A    between atoms: _225  and  _227
REMARK  100  A    between atoms: _227  and  _228
REMARK  101  A    between atoms: _227  and  _230
REMARK  102  A    between atoms: _233  and  _235
REMARK  103  A    between atoms: _235  and  _236
REMARK  104  A    between atoms: _235  and  _238
REMARK  105  A    between atoms: _241  and  _243
REMARK  106  A    between atoms: _243  and  _244
REMARK  107  A    between atoms: _243  and  _246
REMARK  108  A    between atoms: _246  and  _247
REMARK  109  A    between atoms: _252  and  _254
REMARK  110  A    between atoms: _254  and  _255
REMARK  111  A    between atoms: _254  and  _257
REMARK  112  A    between atoms: _257  and  _258
REMARK  113  A    between atoms: _261  and  _263
REMARK  114  A    between atoms: _263  and  _264
REMARK  115  A    between atoms: _263  and  _266
REMARK  116  A    between atoms: _266  and  _267
REMARK  117  A    between atoms: _270  and  _272
REMARK  118  A    between atoms: _272  and  _273
REMARK  119  A    between atoms: _275  and  _277
REMARK  120  A    between atoms: _277  and  _278
REMARK  121  A    between atoms: _277  and  _280
REMARK  122  A    between atoms: _280  and  _281
REMARK  123  A    between atoms: _281  and  _282
REMARK  124  A    between atoms: _284  and  _286
REMARK  125  A    between atoms: _286  and  _287
REMARK  126  A    between atoms: _286  and  _289
REMARK  127  A    between atoms: _292  and  _294
REMARK  128  A    between atoms: _294  and  _295
REMARK  129  A    between atoms: _294  and  _297
REMARK  130  A    between atoms: _297  and  _298
REMARK  131  A    between atoms: _301  and  _303
REMARK  132  A    between atoms: _303  and  _304
REMARK  133  A    between atoms: _303  and  _306
REMARK  134  A    between atoms: _309  and  _311
REMARK  135  A    between atoms: _311  and  _312
REMARK  136  A    between atoms: _311  and  _314
REMARK  137  A    between atoms: _314  and  _315
REMARK  138  A    between atoms: _315  and  _316
REMARK  139  A    between atoms: _319  and  _321
REMARK  140  A    between atoms: _321  and  _322
REMARK  141  A    between atoms: _321  and  _324
REMARK  142  A    between atoms: _324  and  _325
REMARK  143  A    between atoms: _331  and  _333
REMARK  144  A    between atoms: _333  and  _334
REMARK  145  A    between atoms: _333  and  _336
REMARK  146  A    between atoms: _338  and  _340
REMARK  147  A    between atoms: _340  and  _341
REMARK  148  A    between atoms: _340  and  _343
REMARK  149  A    between atoms: _343  and  _344
REMARK  150  A    between atoms: _344  and  _345
REMARK  151  A    between atoms: _345  and  _346
REMARK  152  A    between atoms: _346  and  _347
REMARK  153  A    between atoms: _351  and  _353
REMARK  154  A    between atoms: _353  and  _354
REMARK  155  A    between atoms: _353  and  _356
REMARK  156  A    between atoms: _356  and  _357
REMARK  157  A    between atoms: _363  and  _365
REMARK  158  A    between atoms: _365  and  _366
REMARK  159  A    between atoms: _368  and  _370
REMARK  160  A    between atoms: _370  and  _371
REMARK  161  A    between atoms: _370  and  _373
REMARK  162  A    between atoms: _373  and  _374
REMARK  163  A    between atoms: _379  and  _381
REMARK  164  A    between atoms: _381  and  _382
REMARK  165  A    between atoms: _384  and  _386
REMARK  166  A    between atoms: _386  and  _387
REMARK  167  A    between atoms: _386  and  _389
REMARK  168  A    between atoms: _389  and  _390
REMARK  169  A    between atoms: _390  and  _391
REMARK  170  A    between atoms: _393  and  _395
REMARK  171  A    between atoms: _395  and  _396
REMARK  172  A    between atoms: _395  and  _398
REMARK  173  A    between atoms: _398  and  _399
REMARK  174  A    between atoms: _402  and  _404
REMARK  175  A    between atoms: _404  and  _405
REMARK  176  A    between atoms: _404  and  _407
REMARK  177  A    between atoms: _409  and  _411
REMARK  178  A    between atoms: _411  and  _412
REMARK  179  A    between atoms: _411  and  _414
REMARK  180  A    between atoms: _414  and  _415
REMARK  181  A    between atoms: _418  and  _420
REMARK  182  A    between atoms: _420  and  _421
REMARK  183  A    between atoms: _420  and  _423
REMARK  184  A    between atoms: _423  and  _424
REMARK  185  A    between atoms: _429  and  _431
REMARK  186  A    between atoms: _431  and  _432
REMARK  187  A    between atoms: _431  and  _434
REMARK  188  A    between atoms: _434  and  _435
REMARK  189  A    between atoms: _435  and  _436
REMARK  190  A    between atoms: _436  and  _437
REMARK  191  A    between atoms: _446  and  _448
REMARK  192  A    between atoms: _448  and  _449
REMARK  193  A    between atoms: _448  and  _451
REMARK  194  A    between atoms: _451  and  _452
REMARK  195  A    between atoms: _452  and  _453
REMARK  196  A    between atoms: _453  and  _454
REMARK  197  A    between atoms: _463  and  _465
REMARK  198  A    between atoms: _465  and  _466
REMARK  199  A    between atoms: _465  and  _468
REMARK  200  A    between atoms: _468  and  _469
REMARK  201  A    between atoms: _474  and  _476
REMARK  202  A    between atoms: _476  and  _477
REMARK  203  A    between atoms: _476  and  _479
REMARK  204  A    between atoms: _479  and  _480
REMARK  205  A    between atoms: _483  and  _485
REMARK  206  A    between atoms: _485  and  _486
REMARK  207  A    between atoms: _485  and  _488
REMARK  208  A    between atoms: _488  and  _489
REMARK  209  A    between atoms: _492  and  _494
REMARK  210  A    between atoms: _494  and  _495
REMARK  211  A    between atoms: _494  and  _497
REMARK  212  A    between atoms: _497  and  _498
REMARK  213  A    between atoms: _500  and  _502
REMARK  214  A    between atoms: _502  and  _503
REMARK  215  A    between atoms: _502  and  _505
REMARK  216  A    between atoms: _505  and  _506
REMARK  217  A    between atoms: _506  and  _507
REMARK  218  A    between atoms: _507  and  _508
REMARK  219  A    between atoms: _508  and  _509
REMARK  220  A    between atoms: _513  and  _515
REMARK  221  A    between atoms: _515  and  _516
REMARK  222  A    between atoms: _515  and  _518
REMARK  223  A    between atoms: _518  and  _519
REMARK  224  A    between atoms: _522  and  _524
REMARK  225  A    between atoms: _524  and  _525
REMARK  226  A    between atoms: _524  and  _527
REMARK  227  A    between atoms: _529  and  _531
REMARK  228  A    between atoms: _531  and  _532
REMARK  229  A    between atoms: _531  and  _534
REMARK  230  A    between atoms: _534  and  _535
REMARK  231  A    between atoms: _538  and  _540
REMARK  232  A    between atoms: _540  and  _541
REMARK  233  A    between atoms: _540  and  _543
REMARK  234  A    between atoms: _543  and  _544
REMARK  235  A    between atoms: _550  and  _552
REMARK  236  A    between atoms: _552  and  _553
REMARK  237  A    between atoms: _555  and  _557
REMARK  238  A    between atoms: _557  and  _558
REMARK  239  A    between atoms: _557  and  _560
REMARK  240  A    between atoms: _560  and  _561
REMARK  241  A    between atoms: _564  and  _566
REMARK  242  A    between atoms: _566  and  _567
REMARK  243  A    between atoms: _570  and  _572
REMARK  244  A    between atoms: _572  and  _573
REMARK  245  A    between atoms: _572  and  _575
REMARK  246  A    between atoms: _575  and  _576
REMARK  247  A    between atoms: _576  and  _577
REMARK  248  A    between atoms: _577  and  _578
REMARK                            x       y       z     vdW  Elec       q    Type
REMARK                         _______ _______ _______ _____ _____    ______ ____
ROOT
ATOM      1  O   HOH     1     -27.869  -9.436 -11.700  0.00  0.00    +0.000 OA
ENDROOT
TORSDOF 0
REMARK  Name = ../refined-set-2016/4ase/4ase_pocket.pdb
REMARK  248 active torsions:
REMARK  status: ('A' for Active; 'I' for Inactive)
REMARK    1  A    between atoms: _1  and  _3
REMARK    2  A    between atoms: _3  and  _4
REMARK    3  A    between atoms: _3  and  _6
REMARK    4  A    between atoms: _6  and  _7
REMARK    5  A    between atoms: _10  and  _12
REMARK    6  A    between atoms: _12  and  _13
REMARK    7  A    between atoms: _12  and  _15
REMARK    8  A    between atoms: _15  and  _16
REMARK    9  A    between atoms: _16  and  _17
REMARK   10  A    between atoms: _17  and  _18
REMARK   11  A    between atoms: _18  and  _19
REMARK   12  A    between atoms: _24  and  _25
REMARK   13  A    between atoms: _30  and  _32
REMARK   14  A    between atoms: _32  and  _33
REMARK   15  A    between atoms: _32  and  _35
REMARK   16  A    between atoms: _35  and  _36
REMARK   17  A    between atoms: _39  and  _41
REMARK   18  A    between atoms: _41  and  _42
REMARK   19  A    between atoms: _44  and  _46
REMARK   20  A    between atoms: _46  and  _47
REMARK   21  A    between atoms: _46  and  _49
REMARK   22  A    between atoms: _49  and  _50
REMARK   23  A    between atoms: _50  and  _51
REMARK   24  A    between atoms: _51  and  _52
REMARK   25  A    between atoms: _61  and  _63
REMARK   26  A    between atoms: _63  and  _64
REMARK   27  A    between atoms: _63  and  _66
REMARK   28  A    between atoms: _66  and  _67
REMARK   29  A    between atoms: _67  and  _68
REMARK   30  A    between atoms: _73  and  _75
REMARK   31  A    between atoms: _75  and  _76
REMARK   32  A    between atoms: _75  and  _78
REMARK   33  A    between atoms: _81  and  _83
REMARK   34  A    between atoms: _83  and  _84
REMARK   35  A    between atoms: _83  and  _86
REMARK   36  A    between atoms: _86  and  _87
REMARK   37  A    between atoms: _90  and  _92
REMARK   38  A    between atoms: _92  and  _93
REMARK   39  A    between atoms: _92  and  _95
REMARK   40  A    between atoms: _95  and  _96
REMARK   41  A    between atoms: _96  and  _97
REMARK   42  A    between atoms: _100  and  _102
REMARK   43  A    between atoms: _102  and  _103
REMARK   44  A    between atoms: _102  and  _105
REMARK   45  A    between atoms: _105  and  _106
REMARK   46  A    between atoms: _109  and  _111
REMARK   47  A    between atoms: _111  and  _112
REMARK   48  A    between atoms: _111  and  _114
REMARK   49  A    between atoms: _117  and  _119
REMARK   50  A    between atoms: _119  and  _120
REMARK   51  A    between atoms: _123  and  _125
REMARK   52  A    between atoms: _125  and  _126
REMARK   53  A    between atoms: _125  and  _128
REMARK   54  A    between atoms: _131  and  _133
REMARK   55  A    between atoms: _133  and  _134
REMARK   56  A    between atoms: _133  and  _136
REMARK   57  A    between atoms: _136  and  _137
REMARK   58  A    between atoms: _137  and  _138
REMARK   59  A    between atoms: _138  and  _139
REMARK   60  A    between atoms: _139  and  _140
REMARK   61  A    between atoms: _144  and  _146
REMARK   62  A    between atoms: _146  and  _147
REMARK   63  A    between atoms: _146  and  _149
REMARK   64  A    between atoms: _149  and  _150
REMARK   65  A    between atoms: _150  and  _151
REMARK   66  A    between atoms: _153  and  _155
REMARK   67  A    between atoms: _155  and  _156
REMARK   68  A    between atoms: _155  and  _158
REMARK   69  A    between atoms: _158  and  _159
REMARK   70  A    between atoms: _162  and  _164
REMARK   71  A    between atoms: _164  and  _165
REMARK   72  A    between atoms: _164  and  _167
REMARK   73  A    between atoms: _167  and  _168
REMARK   74  A    between atoms: _170  and  _172
REMARK   75  A    between atoms: _172  and  _173
REMARK   76  A    between atoms: _172  and  _175
REMARK   77  A    between atoms: _175  and  _176
REMARK   78  A    between atoms: _176  and  _177
REMARK   79  A    between atoms: _180  and  _182
REMARK   80  A    between atoms: _182  and  _183
REMARK   81  A    between atoms: _182  and  _185
REMARK   82  A    between atoms: _185  and  _186
REMARK   83  A    between atoms: _189  and  _191
REMARK   84  A    between atoms: _191  and  _192
REMARK   85  A    between atoms: _191  and  _194
REMARK   86  A    between atoms: _194  and  _195
REMARK   87  A    between atoms: _198  and  _200
REMARK   88  A    between atoms: _200  and  _201
REMARK   89  A    between atoms: _200  and  _203
REMARK   90  A    between atoms: _203  and  _204
REMARK   91  A    between atoms: _207  and  _209
REMARK   92  A    between atoms: _209  and  _210
REMARK   93  A    between atoms: _209  and  _212
REMARK   94  A    between atoms: _212  and  _213
REMARK   95  A    between atoms: _216  and  _218
REMARK   96  A    between atoms: _218  and  _219
REMARK   97  A    between atoms: _218  and  _221
REMARK   98  A    between atoms: _221  and  _222
REMARK   99  A    between atoms: _225  and  _227
REMARK  100  A    between atoms: _227  and  _228
REMARK  101  A    between atoms: _227  and  _230
REMARK  102  A    between atoms: _233  and  _235
REMARK  103  A    between atoms: _235  and  _236
REMARK  104  A    between atoms: _235  and  _238
REMARK  105  A    between atoms: _241  and  _243
REMARK  106  A    between atoms: _243  and  _244
REMARK  107  A    between atoms: _243  and  _246
REMARK  108  A    between atoms: _246  and  _247
REMARK  109  A    between atoms: _252  and  _254
REMARK  110  A    between atoms: _254  and  _255
REMARK  111  A    between atoms: _254  and  _257
REMARK  112  A    between atoms: _257  and  _258
REMARK  113  A    between atoms: _261  and  _263
REMARK  114  A    between atoms: _263  and  _264
REMARK  115  A    between atoms: _263  and  _266
REMARK  116  A    between atoms: _266  and  _267
REMARK  117  A    between atoms: _270  and  _272
REMARK  118  A    between atoms: _272  and  _273
REMARK  119  A    between atoms: _275  and  _277
REMARK  120  A    between atoms: _277  and  _278
REMARK  121  A    between atoms: _277  and  _280
REMARK  122  A    between atoms: _280  and  _281
REMARK  123  A    between atoms: _281  and  _282
REMARK  124  A    between atoms: _284  and  _286
REMARK  125  A    between atoms: _286  and  _287
REMARK  126  A    between atoms: _286  and  _289
REMARK  127  A    between atoms: _292  and  _294
REMARK  128  A    between atoms: _294  and  _295
REMARK  129  A    between atoms: _294  and  _297
REMARK  130  A    between atoms: _297  and  _298
REMARK  131  A    between atoms: _301  and  _303
REMARK  132  A    between atoms: _303  and  _304
REMARK  133  A    between atoms: _303  and  _306
REMARK  134  A    between atoms: _309  and  _311
REMARK  135  A    between atoms: _311  and  _312
REMARK  136  A    between atoms: _311  and  _314
REMARK  137  A    between atoms: _314  and  _315
REMARK  138  A    between atoms: _315  and  _316
REMARK  139  A    between atoms: _319  and  _321
REMARK  140  A    between atoms: _321  and  _322
REMARK  141  A    between atoms: _321  and  _324
REMARK  142  A    between atoms: _324  and  _325
REMARK  143  A    between atoms: _331  and  _333
REMARK  144  A    between atoms: _333  and  _334
REMARK  145  A    between atoms: _333  and  _336
REMARK  146  A    between atoms: _338  and  _340
REMARK  147  A    between atoms: _340  and  _341
REMARK  148  A    between atoms: _340  and  _343
REMARK  149  A    between atoms: _343  and  _344
REMARK  150  A    between atoms: _344  and  _345
REMARK  151  A    between atoms: _345  and  _346
REMARK  152  A    between atoms: _346  and  _347
REMARK  153  A    between atoms: _351  and  _353
REMARK  154  A    between atoms: _353  and  _354
REMARK  155  A    between atoms: _353  and  _356
REMARK  156  A    between atoms: _356  and  _357
REMARK  157  A    between atoms: _363  and  _365
REMARK  158  A    between atoms: _365  and  _366
REMARK  159  A    between atoms: _368  and  _370
REMARK  160  A    between atoms: _370  and  _371
REMARK  161  A    between atoms: _370  and  _373
REMARK  162  A    between atoms: _373  and  _374
REMARK  163  A    between atoms: _379  and  _381
REMARK  164  A    between atoms: _381  and  _382
REMARK  165  A    between atoms: _384  and  _386
REMARK  166  A    between atoms: _386  and  _387
REMARK  167  A    between atoms: _386  and  _389
REMARK  168  A    between atoms: _389  and  _390
REMARK  169  A    between atoms: _390  and  _391
REMARK  170  A    between atoms: _393  and  _395
REMARK  171  A    between atoms: _395  and  _396
REMARK  172  A    between atoms: _395  and  _398
REMARK  173  A    between atoms: _398  and  _399
REMARK  174  A    between atoms: _402  and  _404
REMARK  175  A    between atoms: _404  and  _405
REMARK  176  A    between atoms: _404  and  _407
REMARK  177  A    between atoms: _409  and  _411
REMARK  178  A    between atoms: _411  and  _412
REMARK  179  A    between atoms: _411  and  _414
REMARK  180  A    between atoms: _414  and  _415
REMARK  181  A    between atoms: _418  and  _420
REMARK  182  A    between atoms: _420  and  _421
REMARK  183  A    between atoms: _420  and  _423
REMARK  184  A    between atoms: _423  and  _424
REMARK  185  A    between atoms: _429  and  _431
REMARK  186  A    between atoms: _431  and  _432
REMARK  187  A    between atoms: _431  and  _434
REMARK  188  A    between atoms: _434  and  _435
REMARK  189  A    between atoms: _435  and  _436
REMARK  190  A    between atoms: _436  and  _437
REMARK  191  A    between atoms: _446  and  _448
REMARK  192  A    between atoms: _448  and  _449
REMARK  193  A    between atoms: _448  and  _451
REMARK  194  A    between atoms: _451  and  _452
REMARK  195  A    between atoms: _452  and  _453
REMARK  196  A    between atoms: _453  and  _454
REMARK  197  A    between atoms: _463  and  _465
REMARK  198  A    between atoms: _465  and  _466
REMARK  199  A    between atoms: _465  and  _468
REMARK  200  A    between atoms: _468  and  _469
REMARK  201  A    between atoms: _474  and  _476
REMARK  202  A    between atoms: _476  and  _477
REMARK  203  A    between atoms: _476  and  _479
REMARK  204  A    between atoms: _479  and  _480
REMARK  205  A    between atoms: _483  and  _485
REMARK  206  A    between atoms: _485  and  _486
REMARK  207  A    between atoms: _485  and  _488
REMARK  208  A    between atoms: _488  and  _489
REMARK  209  A    between atoms: _492  and  _494
REMARK  210  A    between atoms: _494  and  _495
REMARK  211  A    between atoms: _494  and  _497
REMARK  212  A    between atoms: _497  and  _498
REMARK  213  A    between atoms: _500  and  _502
REMARK  214  A    between atoms: _502  and  _503
REMARK  215  A    between atoms: _502  and  _505
REMARK  216  A    between atoms: _505  and  _506
REMARK  217  A    between atoms: _506  and  _507
REMARK  218  A    between atoms: _507  and  _508
REMARK  219  A    between atoms: _508  and  _509
REMARK  220  A    between atoms: _513  and  _515
REMARK  221  A    between atoms: _515  and  _516
REMARK  222  A    between atoms: _515  and  _518
REMARK  223  A    between atoms: _518  and  _519
REMARK  224  A    between atoms: _522  and  _524
REMARK  225  A    between atoms: _524  and  _525
REMARK  226  A    between atoms: _524  and  _527
REMARK  227  A    between atoms: _529  and  _531
REMARK  228  A    between atoms: _531  and  _532
REMARK  229  A    between atoms: _531  and  _534
REMARK  230  A    between atoms: _534  and  _535
REMARK  231  A    between atoms: _538  and  _540
REMARK  232  A    between atoms: _540  and  _541
REMARK  233  A    between atoms: _540  and  _543
REMARK  234  A    between atoms: _543  and  _544
REMARK  235  A    between atoms: _550  and  _552
REMARK  236  A    between atoms: _552  and  _553
REMARK  237  A    between atoms: _555  and  _557
REMARK  238  A    between atoms: _557  and  _558
REMARK  239  A    between atoms: _557  and  _560
REMARK  240  A    between atoms: _560  and  _561
REMARK  241  A    between atoms: _564  and  _566
REMARK  242  A    between atoms: _566  and  _567
REMARK  243  A    between atoms: _570  and  _572
REMARK  244  A    between atoms: _572  and  _573
REMARK  245  A    between atoms: _572  and  _575
REMARK  246  A    between atoms: _575  and  _576
REMARK  247  A    between atoms: _576  and  _577
REMARK  248  A    between atoms: _577  and  _578
REMARK                            x       y       z     vdW  Elec       q    Type
REMARK                         _______ _______ _______ _____ _____    ______ ____
ROOT
ATOM      1  O   HOH     1     -32.353   2.636  -7.193  0.00  0.00    +0.000 OA
ENDROOT
TORSDOF 0
REMARK  Name = ../refined-set-2016/4ase/4ase_pocket.pdb
REMARK  248 active torsions:
REMARK  status: ('A' for Active; 'I' for Inactive)
REMARK    1  A    between atoms: _1  and  _3
REMARK    2  A    between atoms: _3  and  _4
REMARK    3  A    between atoms: _3  and  _6
REMARK    4  A    between atoms: _6  and  _7
REMARK    5  A    between atoms: _10  and  _12
REMARK    6  A    between atoms: _12  and  _13
REMARK    7  A    between atoms: _12  and  _15
REMARK    8  A    between atoms: _15  and  _16
REMARK    9  A    between atoms: _16  and  _17
REMARK   10  A    between atoms: _17  and  _18
REMARK   11  A    between atoms: _18  and  _19
REMARK   12  A    between atoms: _24  and  _25
REMARK   13  A    between atoms: _30  and  _32
REMARK   14  A    between atoms: _32  and  _33
REMARK   15  A    between atoms: _32  and  _35
REMARK   16  A    between atoms: _35  and  _36
REMARK   17  A    between atoms: _39  and  _41
REMARK   18  A    between atoms: _41  and  _42
REMARK   19  A    between atoms: _44  and  _46
REMARK   20  A    between atoms: _46  and  _47
REMARK   21  A    between atoms: _46  and  _49
REMARK   22  A    between atoms: _49  and  _50
REMARK   23  A    between atoms: _50  and  _51
REMARK   24  A    between atoms: _51  and  _52
REMARK   25  A    between atoms: _61  and  _63
REMARK   26  A    between atoms: _63  and  _64
REMARK   27  A    between atoms: _63  and  _66
REMARK   28  A    between atoms: _66  and  _67
REMARK   29  A    between atoms: _67  and  _68
REMARK   30  A    between atoms: _73  and  _75
REMARK   31  A    between atoms: _75  and  _76
REMARK   32  A    between atoms: _75  and  _78
REMARK   33  A    between atoms: _81  and  _83
REMARK   34  A    between atoms: _83  and  _84
REMARK   35  A    between atoms: _83  and  _86
REMARK   36  A    between atoms: _86  and  _87
REMARK   37  A    between atoms: _90  and  _92
REMARK   38  A    between atoms: _92  and  _93
REMARK   39  A    between atoms: _92  and  _95
REMARK   40  A    between atoms: _95  and  _96
REMARK   41  A    between atoms: _96  and  _97
REMARK   42  A    between atoms: _100  and  _102
REMARK   43  A    between atoms: _102  and  _103
REMARK   44  A    between atoms: _102  and  _105
REMARK   45  A    between atoms: _105  and  _106
REMARK   46  A    between atoms: _109  and  _111
REMARK   47  A    between atoms: _111  and  _112
REMARK   48  A    between atoms: _111  and  _114
REMARK   49  A    between atoms: _117  and  _119
REMARK   50  A    between atoms: _119  and  _120
REMARK   51  A    between atoms: _123  and  _125
REMARK   52  A    between atoms: _125  and  _126
REMARK   53  A    between atoms: _125  and  _128
REMARK   54  A    between atoms: _131  and  _133
REMARK   55  A    between atoms: _133  and  _134
REMARK   56  A    between atoms: _133  and  _136
REMARK   57  A    between atoms: _136  and  _137
REMARK   58  A    between atoms: _137  and  _138
REMARK   59  A    between atoms: _138  and  _139
REMARK   60  A    between atoms: _139  and  _140
REMARK   61  A    between atoms: _144  and  _146
REMARK   62  A    between atoms: _146  and  _147
REMARK   63  A    between atoms: _146  and  _149
REMARK   64  A    between atoms: _149  and  _150
REMARK   65  A    between atoms: _150  and  _151
REMARK   66  A    between atoms: _153  and  _155
REMARK   67  A    between atoms: _155  and  _156
REMARK   68  A    between atoms: _155  and  _158
REMARK   69  A    between atoms: _158  and  _159
REMARK   70  A    between atoms: _162  and  _164
REMARK   71  A    between atoms: _164  and  _165
REMARK   72  A    between atoms: _164  and  _167
REMARK   73  A    between atoms: _167  and  _168
REMARK   74  A    between atoms: _170  and  _172
REMARK   75  A    between atoms: _172  and  _173
REMARK   76  A    between atoms: _172  and  _175
REMARK   77  A    between atoms: _175  and  _176
REMARK   78  A    between atoms: _176  and  _177
REMARK   79  A    between atoms: _180  and  _182
REMARK   80  A    between atoms: _182  and  _183
REMARK   81  A    between atoms: _182  and  _185
REMARK   82  A    between atoms: _185  and  _186
REMARK   83  A    between atoms: _189  and  _191
REMARK   84  A    between atoms: _191  and  _192
REMARK   85  A    between atoms: _191  and  _194
REMARK   86  A    between atoms: _194  and  _195
REMARK   87  A    between atoms: _198  and  _200
REMARK   88  A    between atoms: _200  and  _201
REMARK   89  A    between atoms: _200  and  _203
REMARK   90  A    between atoms: _203  and  _204
REMARK   91  A    between atoms: _207  and  _209
REMARK   92  A    between atoms: _209  and  _210
REMARK   93  A    between atoms: _209  and  _212
REMARK   94  A    between atoms: _212  and  _213
REMARK   95  A    between atoms: _216  and  _218
REMARK   96  A    between atoms: _218  and  _219
REMARK   97  A    between atoms: _218  and  _221
REMARK   98  A    between atoms: _221  and  _222
REMARK   99  A    between atoms: _225  and  _227
REMARK  100  A    between atoms: _227  and  _228
REMARK  101  A    between atoms: _227  and  _230
REMARK  102  A    between atoms: _233  and  _235
REMARK  103  A    between atoms: _235  and  _236
REMARK  104  A    between atoms: _235  and  _238
REMARK  105  A    between atoms: _241  and  _243
REMARK  106  A    between atoms: _243  and  _244
REMARK  107  A    between atoms: _243  and  _246
REMARK  108  A    between atoms: _246  and  _247
REMARK  109  A    between atoms: _252  and  _254
REMARK  110  A    between atoms: _254  and  _255
REMARK  111  A    between atoms: _254  and  _257
REMARK  112  A    between atoms: _257  and  _258
REMARK  113  A    between atoms: _261  and  _263
REMARK  114  A    between atoms: _263  and  _264
REMARK  115  A    between atoms: _263  and  _266
REMARK  116  A    between atoms: _266  and  _267
REMARK  117  A    between atoms: _270  and  _272
REMARK  118  A    between atoms: _272  and  _273
REMARK  119  A    between atoms: _275  and  _277
REMARK  120  A    between atoms: _277  and  _278
REMARK  121  A    between atoms: _277  and  _280
REMARK  122  A    between atoms: _280  and  _281
REMARK  123  A    between atoms: _281  and  _282
REMARK  124  A    between atoms: _284  and  _286
REMARK  125  A    between atoms: _286  and  _287
REMARK  126  A    between atoms: _286  and  _289
REMARK  127  A    between atoms: _292  and  _294
REMARK  128  A    between atoms: _294  and  _295
REMARK  129  A    between atoms: _294  and  _297
REMARK  130  A    between atoms: _297  and  _298
REMARK  131  A    between atoms: _301  and  _303
REMARK  132  A    between atoms: _303  and  _304
REMARK  133  A    between atoms: _303  and  _306
REMARK  134  A    between atoms: _309  and  _311
REMARK  135  A    between atoms: _311  and  _312
REMARK  136  A    between atoms: _311  and  _314
REMARK  137  A    between atoms: _314  and  _315
REMARK  138  A    between atoms: _315  and  _316
REMARK  139  A    between atoms: _319  and  _321
REMARK  140  A    between atoms: _321  and  _322
REMARK  141  A    between atoms: _321  and  _324
REMARK  142  A    between atoms: _324  and  _325
REMARK  143  A    between atoms: _331  and  _333
REMARK  144  A    between atoms: _333  and  _334
REMARK  145  A    between atoms: _333  and  _336
REMARK  146  A    between atoms: _338  and  _340
REMARK  147  A    between atoms: _340  and  _341
REMARK  148  A    between atoms: _340  and  _343
REMARK  149  A    between atoms: _343  and  _344
REMARK  150  A    between atoms: _344  and  _345
REMARK  151  A    between atoms: _345  and  _346
REMARK  152  A    between atoms: _346  and  _347
REMARK  153  A    between atoms: _351  and  _353
REMARK  154  A    between atoms: _353  and  _354
REMARK  155  A    between atoms: _353  and  _356
REMARK  156  A    between atoms: _356  and  _357
REMARK  157  A    between atoms: _363  and  _365
REMARK  158  A    between atoms: _365  and  _366
REMARK  159  A    between atoms: _368  and  _370
REMARK  160  A    between atoms: _370  and  _371
REMARK  161  A    between atoms: _370  and  _373
REMARK  162  A    between atoms: _373  and  _374
REMARK  163  A    between atoms: _379  and  _381
REMARK  164  A    between atoms: _381  and  _382
REMARK  165  A    between atoms: _384  and  _386
REMARK  166  A    between atoms: _386  and  _387
REMARK  167  A    between atoms: _386  and  _389
REMARK  168  A    between atoms: _389  and  _390
REMARK  169  A    between atoms: _390  and  _391
REMARK  170  A    between atoms: _393  and  _395
REMARK  171  A    between atoms: _395  and  _396
REMARK  172  A    between atoms: _395  and  _398
REMARK  173  A    between atoms: _398  and  _399
REMARK  174  A    between atoms: _402  and  _404
REMARK  175  A    between atoms: _404  and  _405
REMARK  176  A    between atoms: _404  and  _407
REMARK  177  A    between atoms: _409  and  _411
REMARK  178  A    between atoms: _411  and  _412
REMARK  179  A    between atoms: _411  and  _414
REMARK  180  A    between atoms: _414  and  _415
REMARK  181  A    between atoms: _418  and  _420
REMARK  182  A    between atoms: _420  and  _421
REMARK  183  A    between atoms: _420  and  _423
REMARK  184  A    between atoms: _423  and  _424
REMARK  185  A    between atoms: _429  and  _431
REMARK  186  A    between atoms: _431  and  _432
REMARK  187  A    between atoms: _431  and  _434
REMARK  188  A    between atoms: _434  and  _435
REMARK  189  A    between atoms: _435  and  _436
REMARK  190  A    between atoms: _436  and  _437
REMARK  191  A    between atoms: _446  and  _448
REMARK  192  A    between atoms: _448  and  _449
REMARK  193  A    between atoms: _448  and  _451
REMARK  194  A    between atoms: _451  and  _452
REMARK  195  A    between atoms: _452  and  _453
REMARK  196  A    between atoms: _453  and  _454
REMARK  197  A    between atoms: _463  and  _465
REMARK  198  A    between atoms: _465  and  _466
REMARK  199  A    between atoms: _465  and  _468
REMARK  200  A    between atoms: _468  and  _469
REMARK  201  A    between atoms: _474  and  _476
REMARK  202  A    between atoms: _476  and  _477
REMARK  203  A    between atoms: _476  and  _479
REMARK  204  A    between atoms: _479  and  _480
REMARK  205  A    between atoms: _483  and  _485
REMARK  206  A    between atoms: _485  and  _486
REMARK  207  A    between atoms: _485  and  _488
REMARK  208  A    between atoms: _488  and  _489
REMARK  209  A    between atoms: _492  and  _494
REMARK  210  A    between atoms: _494  and  _495
REMARK  211  A    between atoms: _494  and  _497
REMARK  212  A    between atoms: _497  and  _498
REMARK  213  A    between atoms: _500  and  _502
REMARK  214  A    between atoms: _502  and  _503
REMARK  215  A    between atoms: _502  and  _505
REMARK  216  A    between atoms: _505  and  _506
REMARK  217  A    between atoms: _506  and  _507
REMARK  218  A    between atoms: _507  and  _508
REMARK  219  A    between atoms: _508  and  _509
REMARK  220  A    between atoms: _513  and  _515
REMARK  221  A    between atoms: _515  and  _516
REMARK  222  A    between atoms: _515  and  _518
REMARK  223  A    between atoms: _518  and  _519
REMARK  224  A    between atoms: _522  and  _524
REMARK  225  A    between atoms: _524  and  _525
REMARK  226  A    between atoms: _524  and  _527
REMARK  227  A    between atoms: _529  and  _531
REMARK  228  A    between atoms: _531  and  _532
REMARK  229  A    between atoms: _531  and  _534
REMARK  230  A    between atoms: _534  and  _535
REMARK  231  A    between atoms: _538  and  _540
REMARK  232  A    between atoms: _540  and  _541
REMARK  233  A    between atoms: _540  and  _543
REMARK  234  A    between atoms: _543  and  _544
REMARK  235  A    between atoms: _550  and  _552
REMARK  236  A    between atoms: _552  and  _553
REMARK  237  A    between atoms: _555  and  _557
REMARK  238  A    between atoms: _557  and  _558
REMARK  239  A    between atoms: _557  and  _560
REMARK  240  A    between atoms: _560  and  _561
REMARK  241  A    between atoms: _564  and  _566
REMARK  242  A    between atoms: _566  and  _567
REMARK  243  A    between atoms: _570  and  _572
REMARK  244  A    between atoms: _572  and  _573
REMARK  245  A    between atoms: _572  and  _575
REMARK  246  A    between atoms: _575  and  _576
REMARK  247  A    between atoms: _576  and  _577
REMARK  248  A    between atoms: _577  and  _578
REMARK                            x       y       z     vdW  Elec       q    Type
REMARK                         _______ _______ _______ _____ _____    ______ ____
ROOT
ATOM      1  O   HOH     1     -32.215   4.023  -9.056  0.00  0.00    +0.000 OA
ENDROOT
TORSDOF 0
REMARK  Name = ../refined-set-2016/4ase/4ase_pocket.pdb
REMARK  248 active torsions:
REMARK  status: ('A' for Active; 'I' for Inactive)
REMARK    1  A    between atoms: _1  and  _3
REMARK    2  A    between atoms: _3  and  _4
REMARK    3  A    between atoms: _3  and  _6
REMARK    4  A    between atoms: _6  and  _7
REMARK    5  A    between atoms: _10  and  _12
REMARK    6  A    between atoms: _12  and  _13
REMARK    7  A    between atoms: _12  and  _15
REMARK    8  A    between atoms: _15  and  _16
REMARK    9  A    between atoms: _16  and  _17
REMARK   10  A    between atoms: _17  and  _18
REMARK   11  A    between atoms: _18  and  _19
REMARK   12  A    between atoms: _24  and  _25
REMARK   13  A    between atoms: _30  and  _32
REMARK   14  A    between atoms: _32  and  _33
REMARK   15  A    between atoms: _32  and  _35
REMARK   16  A    between atoms: _35  and  _36
REMARK   17  A    between atoms: _39  and  _41
REMARK   18  A    between atoms: _41  and  _42
REMARK   19  A    between atoms: _44  and  _46
REMARK   20  A    between atoms: _46  and  _47
REMARK   21  A    between atoms: _46  and  _49
REMARK   22  A    between atoms: _49  and  _50
REMARK   23  A    between atoms: _50  and  _51
REMARK   24  A    between atoms: _51  and  _52
REMARK   25  A    between atoms: _61  and  _63
REMARK   26  A    between atoms: _63  and  _64
REMARK   27  A    between atoms: _63  and  _66
REMARK   28  A    between atoms: _66  and  _67
REMARK   29  A    between atoms: _67  and  _68
REMARK   30  A    between atoms: _73  and  _75
REMARK   31  A    between atoms: _75  and  _76
REMARK   32  A    between atoms: _75  and  _78
REMARK   33  A    between atoms: _81  and  _83
REMARK   34  A    between atoms: _83  and  _84
REMARK   35  A    between atoms: _83  and  _86
REMARK   36  A    between atoms: _86  and  _87
REMARK   37  A    between atoms: _90  and  _92
REMARK   38  A    between atoms: _92  and  _93
REMARK   39  A    between atoms: _92  and  _95
REMARK   40  A    between atoms: _95  and  _96
REMARK   41  A    between atoms: _96  and  _97
REMARK   42  A    between atoms: _100  and  _102
REMARK   43  A    between atoms: _102  and  _103
REMARK   44  A    between atoms: _102  and  _105
REMARK   45  A    between atoms: _105  and  _106
REMARK   46  A    between atoms: _109  and  _111
REMARK   47  A    between atoms: _111  and  _112
REMARK   48  A    between atoms: _111  and  _114
REMARK   49  A    between atoms: _117  and  _119
REMARK   50  A    between atoms: _119  and  _120
REMARK   51  A    between atoms: _123  and  _125
REMARK   52  A    between atoms: _125  and  _126
REMARK   53  A    between atoms: _125  and  _128
REMARK   54  A    between atoms: _131  and  _133
REMARK   55  A    between atoms: _133  and  _134
REMARK   56  A    between atoms: _133  and  _136
REMARK   57  A    between atoms: _136  and  _137
REMARK   58  A    between atoms: _137  and  _138
REMARK   59  A    between atoms: _138  and  _139
REMARK   60  A    between atoms: _139  and  _140
REMARK   61  A    between atoms: _144  and  _146
REMARK   62  A    between atoms: _146  and  _147
REMARK   63  A    between atoms: _146  and  _149
REMARK   64  A    between atoms: _149  and  _150
REMARK   65  A    between atoms: _150  and  _151
REMARK   66  A    between atoms: _153  and  _155
REMARK   67  A    between atoms: _155  and  _156
REMARK   68  A    between atoms: _155  and  _158
REMARK   69  A    between atoms: _158  and  _159
REMARK   70  A    between atoms: _162  and  _164
REMARK   71  A    between atoms: _164  and  _165
REMARK   72  A    between atoms: _164  and  _167
REMARK   73  A    between atoms: _167  and  _168
REMARK   74  A    between atoms: _170  and  _172
REMARK   75  A    between atoms: _172  and  _173
REMARK   76  A    between atoms: _172  and  _175
REMARK   77  A    between atoms: _175  and  _176
REMARK   78  A    between atoms: _176  and  _177
REMARK   79  A    between atoms: _180  and  _182
REMARK   80  A    between atoms: _182  and  _183
REMARK   81  A    between atoms: _182  and  _185
REMARK   82  A    between atoms: _185  and  _186
REMARK   83  A    between atoms: _189  and  _191
REMARK   84  A    between atoms: _191  and  _192
REMARK   85  A    between atoms: _191  and  _194
REMARK   86  A    between atoms: _194  and  _195
REMARK   87  A    between atoms: _198  and  _200
REMARK   88  A    between atoms: _200  and  _201
REMARK   89  A    between atoms: _200  and  _203
REMARK   90  A    between atoms: _203  and  _204
REMARK   91  A    between atoms: _207  and  _209
REMARK   92  A    between atoms: _209  and  _210
REMARK   93  A    between atoms: _209  and  _212
REMARK   94  A    between atoms: _212  and  _213
REMARK   95  A    between atoms: _216  and  _218
REMARK   96  A    between atoms: _218  and  _219
REMARK   97  A    between atoms: _218  and  _221
REMARK   98  A    between atoms: _221  and  _222
REMARK   99  A    between atoms: _225  and  _227
REMARK  100  A    between atoms: _227  and  _228
REMARK  101  A    between atoms: _227  and  _230
REMARK  102  A    between atoms: _233  and  _235
REMARK  103  A    between atoms: _235  and  _236
REMARK  104  A    between atoms: _235  and  _238
REMARK  105  A    between atoms: _241  and  _243
REMARK  106  A    between atoms: _243  and  _244
REMARK  107  A    between atoms: _243  and  _246
REMARK  108  A    between atoms: _246  and  _247
REMARK  109  A    between atoms: _252  and  _254
REMARK  110  A    between atoms: _254  and  _255
REMARK  111  A    between atoms: _254  and  _257
REMARK  112  A    between atoms: _257  and  _258
REMARK  113  A    between atoms: _261  and  _263
REMARK  114  A    between atoms: _263  and  _264
REMARK  115  A    between atoms: _263  and  _266
REMARK  116  A    between atoms: _266  and  _267
REMARK  117  A    between atoms: _270  and  _272
REMARK  118  A    between atoms: _272  and  _273
REMARK  119  A    between atoms: _275  and  _277
REMARK  120  A    between atoms: _277  and  _278
REMARK  121  A    between atoms: _277  and  _280
REMARK  122  A    between atoms: _280  and  _281
REMARK  123  A    between atoms: _281  and  _282
REMARK  124  A    between atoms: _284  and  _286
REMARK  125  A    between atoms: _286  and  _287
REMARK  126  A    between atoms: _286  and  _289
REMARK  127  A    between atoms: _292  and  _294
REMARK  128  A    between atoms: _294  and  _295
REMARK  129  A    between atoms: _294  and  _297
REMARK  130  A    between atoms: _297  and  _298
REMARK  131  A    between atoms: _301  and  _303
REMARK  132  A    between atoms: _303  and  _304
REMARK  133  A    between atoms: _303  and  _306
REMARK  134  A    between atoms: _309  and  _311
REMARK  135  A    between atoms: _311  and  _312
REMARK  136  A    between atoms: _311  and  _314
REMARK  137  A    between atoms: _314  and  _315
REMARK  138  A    between atoms: _315  and  _316
REMARK  139  A    between atoms: _319  and  _321
REMARK  140  A    between atoms: _321  and  _322
REMARK  141  A    between atoms: _321  and  _324
REMARK  142  A    between atoms: _324  and  _325
REMARK  143  A    between atoms: _331  and  _333
REMARK  144  A    between atoms: _333  and  _334
REMARK  145  A    between atoms: _333  and  _336
REMARK  146  A    between atoms: _338  and  _340
REMARK  147  A    between atoms: _340  and  _341
REMARK  148  A    between atoms: _340  and  _343
REMARK  149  A    between atoms: _343  and  _344
REMARK  150  A    between atoms: _344  and  _345
REMARK  151  A    between atoms: _345  and  _346
REMARK  152  A    between atoms: _346  and  _347
REMARK  153  A    between atoms: _351  and  _353
REMARK  154  A    between atoms: _353  and  _354
REMARK  155  A    between atoms: _353  and  _356
REMARK  156  A    between atoms: _356  and  _357
REMARK  157  A    between atoms: _363  and  _365
REMARK  158  A    between atoms: _365  and  _366
REMARK  159  A    between atoms: _368  and  _370
REMARK  160  A    between atoms: _370  and  _371
REMARK  161  A    between atoms: _370  and  _373
REMARK  162  A    between atoms: _373  and  _374
REMARK  163  A    between atoms: _379  and  _381
REMARK  164  A    between atoms: _381  and  _382
REMARK  165  A    between atoms: _384  and  _386
REMARK  166  A    between atoms: _386  and  _387
REMARK  167  A    between atoms: _386  and  _389
REMARK  168  A    between atoms: _389  and  _390
REMARK  169  A    between atoms: _390  and  _391
REMARK  170  A    between atoms: _393  and  _395
REMARK  171  A    between atoms: _395  and  _396
REMARK  172  A    between atoms: _395  and  _398
REMARK  173  A    between atoms: _398  and  _399
REMARK  174  A    between atoms: _402  and  _404
REMARK  175  A    between atoms: _404  and  _405
REMARK  176  A    between atoms: _404  and  _407
REMARK  177  A    between atoms: _409  and  _411
REMARK  178  A    between atoms: _411  and  _412
REMARK  179  A    between atoms: _411  and  _414
REMARK  180  A    between atoms: _414  and  _415
REMARK  181  A    between atoms: _418  and  _420
REMARK  182  A    between atoms: _420  and  _421
REMARK  183  A    between atoms: _420  and  _423
REMARK  184  A    between atoms: _423  and  _424
REMARK  185  A    between atoms: _429  and  _431
REMARK  186  A    between atoms: _431  and  _432
REMARK  187  A    between atoms: _431  and  _434
REMARK  188  A    between atoms: _434  and  _435
REMARK  189  A    between atoms: _435  and  _436
REMARK  190  A    between atoms: _436  and  _437
REMARK  191  A    between atoms: _446  and  _448
REMARK  192  A    between atoms: _448  and  _449
REMARK  193  A    between atoms: _448  and  _451
REMARK  194  A    between atoms: _451  and  _452
REMARK  195  A    between atoms: _452  and  _453
REMARK  196  A    between atoms: _453  and  _454
REMARK  197  A    between atoms: _463  and  _465
REMARK  198  A    between atoms: _465  and  _466
REMARK  199  A    between atoms: _465  and  _468
REMARK  200  A    between atoms: _468  and  _469
REMARK  201  A    between atoms: _474  and  _476
REMARK  202  A    between atoms: _476  and  _477
REMARK  203  A    between atoms: _476  and  _479
REMARK  204  A    between atoms: _479  and  _480
REMARK  205  A    between atoms: _483  and  _485
REMARK  206  A    between atoms: _485  and  _486
REMARK  207  A    between atoms: _485  and  _488
REMARK  208  A    between atoms: _488  and  _489
REMARK  209  A    between atoms: _492  and  _494
REMARK  210  A    between atoms: _494  and  _495
REMARK  211  A    between atoms: _494  and  _497
REMARK  212  A    between atoms: _497  and  _498
REMARK  213  A    between atoms: _500  and  _502
REMARK  214  A    between atoms: _502  and  _503
REMARK  215  A    between atoms: _502  and  _505
REMARK  216  A    between atoms: _505  and  _506
REMARK  217  A    between atoms: _506  and  _507
REMARK  218  A    between atoms: _507  and  _508
REMARK  219  A    between atoms: _508  and  _509
REMARK  220  A    between atoms: _513  and  _515
REMARK  221  A    between atoms: _515  and  _516
REMARK  222  A    between atoms: _515  and  _518
REMARK  223  A    between atoms: _518  and  _519
REMARK  224  A    between atoms: _522  and  _524
REMARK  225  A    between atoms: _524  and  _525
REMARK  226  A    between atoms: _524  and  _527
REMARK  227  A    between atoms: _529  and  _531
REMARK  228  A    between atoms: _531  and  _532
REMARK  229  A    between atoms: _531  and  _534
REMARK  230  A    between atoms: _534  and  _535
REMARK  231  A    between atoms: _538  and  _540
REMARK  232  A    between atoms: _540  and  _541
REMARK  233  A    between atoms: _540  and  _543
REMARK  234  A    between atoms: _543  and  _544
REMARK  235  A    between atoms: _550  and  _552
REMARK  236  A    between atoms: _552  and  _553
REMARK  237  A    between atoms: _555  and  _557
REMARK  238  A    between atoms: _557  and  _558
REMARK  239  A    between atoms: _557  and  _560
REMARK  240  A    between atoms: _560  and  _561
REMARK  241  A    between atoms: _564  and  _566
REMARK  242  A    between atoms: _566  and  _567
REMARK  243  A    between atoms: _570  and  _572
REMARK  244  A    between atoms: _572  and  _573
REMARK  245  A    between atoms: _572  and  _575
REMARK  246  A    between atoms: _575  and  _576
REMARK  247  A    between atoms: _576  and  _577
REMARK  248  A    between atoms: _577  and  _578
REMARK                            x       y       z     vdW  Elec       q    Type
REMARK                         _______ _______ _______ _____ _____    ______ ____
ROOT
ATOM      1  O   HOH     1     -23.728  10.477 -12.948  0.00  0.00    +0.000 OA
ENDROOT
TORSDOF 0
REMARK  Name = ../refined-set-2016/4ase/4ase_pocket.pdb
REMARK  248 active torsions:
REMARK  status: ('A' for Active; 'I' for Inactive)
REMARK    1  A    between atoms: _1  and  _3
REMARK    2  A    between atoms: _3  and  _4
REMARK    3  A    between atoms: _3  and  _6
REMARK    4  A    between atoms: _6  and  _7
REMARK    5  A    between atoms: _10  and  _12
REMARK    6  A    between atoms: _12  and  _13
REMARK    7  A    between atoms: _12  and  _15
REMARK    8  A    between atoms: _15  and  _16
REMARK    9  A    between atoms: _16  and  _17
REMARK   10  A    between atoms: _17  and  _18
REMARK   11  A    between atoms: _18  and  _19
REMARK   12  A    between atoms: _24  and  _25
REMARK   13  A    between atoms: _30  and  _32
REMARK   14  A    between atoms: _32  and  _33
REMARK   15  A    between atoms: _32  and  _35
REMARK   16  A    between atoms: _35  and  _36
REMARK   17  A    between atoms: _39  and  _41
REMARK   18  A    between atoms: _41  and  _42
REMARK   19  A    between atoms: _44  and  _46
REMARK   20  A    between atoms: _46  and  _47
REMARK   21  A    between atoms: _46  and  _49
REMARK   22  A    between atoms: _49  and  _50
REMARK   23  A    between atoms: _50  and  _51
REMARK   24  A    between atoms: _51  and  _52
REMARK   25  A    between atoms: _61  and  _63
REMARK   26  A    between atoms: _63  and  _64
REMARK   27  A    between atoms: _63  and  _66
REMARK   28  A    between atoms: _66  and  _67
REMARK   29  A    between atoms: _67  and  _68
REMARK   30  A    between atoms: _73  and  _75
REMARK   31  A    between atoms: _75  and  _76
REMARK   32  A    between atoms: _75  and  _78
REMARK   33  A    between atoms: _81  and  _83
REMARK   34  A    between atoms: _83  and  _84
REMARK   35  A    between atoms: _83  and  _86
REMARK   36  A    between atoms: _86  and  _87
REMARK   37  A    between atoms: _90  and  _92
REMARK   38  A    between atoms: _92  and  _93
REMARK   39  A    between atoms: _92  and  _95
REMARK   40  A    between atoms: _95  and  _96
REMARK   41  A    between atoms: _96  and  _97
REMARK   42  A    between atoms: _100  and  _102
REMARK   43  A    between atoms: _102  and  _103
REMARK   44  A    between atoms: _102  and  _105
REMARK   45  A    between atoms: _105  and  _106
REMARK   46  A    between atoms: _109  and  _111
REMARK   47  A    between atoms: _111  and  _112
REMARK   48  A    between atoms: _111  and  _114
REMARK   49  A    between atoms: _117  and  _119
REMARK   50  A    between atoms: _119  and  _120
REMARK   51  A    between atoms: _123  and  _125
REMARK   52  A    between atoms: _125  and  _126
REMARK   53  A    between atoms: _125  and  _128
REMARK   54  A    between atoms: _131  and  _133
REMARK   55  A    between atoms: _133  and  _134
REMARK   56  A    between atoms: _133  and  _136
REMARK   57  A    between atoms: _136  and  _137
REMARK   58  A    between atoms: _137  and  _138
REMARK   59  A    between atoms: _138  and  _139
REMARK   60  A    between atoms: _139  and  _140
REMARK   61  A    between atoms: _144  and  _146
REMARK   62  A    between atoms: _146  and  _147
REMARK   63  A    between atoms: _146  and  _149
REMARK   64  A    between atoms: _149  and  _150
REMARK   65  A    between atoms: _150  and  _151
REMARK   66  A    between atoms: _153  and  _155
REMARK   67  A    between atoms: _155  and  _156
REMARK   68  A    between atoms: _155  and  _158
REMARK   69  A    between atoms: _158  and  _159
REMARK   70  A    between atoms: _162  and  _164
REMARK   71  A    between atoms: _164  and  _165
REMARK   72  A    between atoms: _164  and  _167
REMARK   73  A    between atoms: _167  and  _168
REMARK   74  A    between atoms: _170  and  _172
REMARK   75  A    between atoms: _172  and  _173
REMARK   76  A    between atoms: _172  and  _175
REMARK   77  A    between atoms: _175  and  _176
REMARK   78  A    between atoms: _176  and  _177
REMARK   79  A    between atoms: _180  and  _182
REMARK   80  A    between atoms: _182  and  _183
REMARK   81  A    between atoms: _182  and  _185
REMARK   82  A    between atoms: _185  and  _186
REMARK   83  A    between atoms: _189  and  _191
REMARK   84  A    between atoms: _191  and  _192
REMARK   85  A    between atoms: _191  and  _194
REMARK   86  A    between atoms: _194  and  _195
REMARK   87  A    between atoms: _198  and  _200
REMARK   88  A    between atoms: _200  and  _201
REMARK   89  A    between atoms: _200  and  _203
REMARK   90  A    between atoms: _203  and  _204
REMARK   91  A    between atoms: _207  and  _209
REMARK   92  A    between atoms: _209  and  _210
REMARK   93  A    between atoms: _209  and  _212
REMARK   94  A    between atoms: _212  and  _213
REMARK   95  A    between atoms: _216  and  _218
REMARK   96  A    between atoms: _218  and  _219
REMARK   97  A    between atoms: _218  and  _221
REMARK   98  A    between atoms: _221  and  _222
REMARK   99  A    between atoms: _225  and  _227
REMARK  100  A    between atoms: _227  and  _228
REMARK  101  A    between atoms: _227  and  _230
REMARK  102  A    between atoms: _233  and  _235
REMARK  103  A    between atoms: _235  and  _236
REMARK  104  A    between atoms: _235  and  _238
REMARK  105  A    between atoms: _241  and  _243
REMARK  106  A    between atoms: _243  and  _244
REMARK  107  A    between atoms: _243  and  _246
REMARK  108  A    between atoms: _246  and  _247
REMARK  109  A    between atoms: _252  and  _254
REMARK  110  A    between atoms: _254  and  _255
REMARK  111  A    between atoms: _254  and  _257
REMARK  112  A    between atoms: _257  and  _258
REMARK  113  A    between atoms: _261  and  _263
REMARK  114  A    between atoms: _263  and  _264
REMARK  115  A    between atoms: _263  and  _266
REMARK  116  A    between atoms: _266  and  _267
REMARK  117  A    between atoms: _270  and  _272
REMARK  118  A    between atoms: _272  and  _273
REMARK  119  A    between atoms: _275  and  _277
REMARK  120  A    between atoms: _277  and  _278
REMARK  121  A    between atoms: _277  and  _280
REMARK  122  A    between atoms: _280  and  _281
REMARK  123  A    between atoms: _281  and  _282
REMARK  124  A    between atoms: _284  and  _286
REMARK  125  A    between atoms: _286  and  _287
REMARK  126  A    between atoms: _286  and  _289
REMARK  127  A    between atoms: _292  and  _294
REMARK  128  A    between atoms: _294  and  _295
REMARK  129  A    between atoms: _294  and  _297
REMARK  130  A    between atoms: _297  and  _298
REMARK  131  A    between atoms: _301  and  _303
REMARK  132  A    between atoms: _303  and  _304
REMARK  133  A    between atoms: _303  and  _306
REMARK  134  A    between atoms: _309  and  _311
REMARK  135  A    between atoms: _311  and  _312
REMARK  136  A    between atoms: _311  and  _314
REMARK  137  A    between atoms: _314  and  _315
REMARK  138  A    between atoms: _315  and  _316
REMARK  139  A    between atoms: _319  and  _321
REMARK  140  A    between atoms: _321  and  _322
REMARK  141  A    between atoms: _321  and  _324
REMARK  142  A    between atoms: _324  and  _325
REMARK  143  A    between atoms: _331  and  _333
REMARK  144  A    between atoms: _333  and  _334
REMARK  145  A    between atoms: _333  and  _336
REMARK  146  A    between atoms: _338  and  _340
REMARK  147  A    between atoms: _340  and  _341
REMARK  148  A    between atoms: _340  and  _343
REMARK  149  A    between atoms: _343  and  _344
REMARK  150  A    between atoms: _344  and  _345
REMARK  151  A    between atoms: _345  and  _346
REMARK  152  A    between atoms: _346  and  _347
REMARK  153  A    between atoms: _351  and  _353
REMARK  154  A    between atoms: _353  and  _354
REMARK  155  A    between atoms: _353  and  _356
REMARK  156  A    between atoms: _356  and  _357
REMARK  157  A    between atoms: _363  and  _365
REMARK  158  A    between atoms: _365  and  _366
REMARK  159  A    between atoms: _368  and  _370
REMARK  160  A    between atoms: _370  and  _371
REMARK  161  A    between atoms: _370  and  _373
REMARK  162  A    between atoms: _373  and  _374
REMARK  163  A    between atoms: _379  and  _381
REMARK  164  A    between atoms: _381  and  _382
REMARK  165  A    between atoms: _384  and  _386
REMARK  166  A    between atoms: _386  and  _387
REMARK  167  A    between atoms: _386  and  _389
REMARK  168  A    between atoms: _389  and  _390
REMARK  169  A    between atoms: _390  and  _391
REMARK  170  A    between atoms: _393  and  _395
REMARK  171  A    between atoms: _395  and  _396
REMARK  172  A    between atoms: _395  and  _398
REMARK  173  A    between atoms: _398  and  _399
REMARK  174  A    between atoms: _402  and  _404
REMARK  175  A    between atoms: _404  and  _405
REMARK  176  A    between atoms: _404  and  _407
REMARK  177  A    between atoms: _409  and  _411
REMARK  178  A    between atoms: _411  and  _412
REMARK  179  A    between atoms: _411  and  _414
REMARK  180  A    between atoms: _414  and  _415
REMARK  181  A    between atoms: _418  and  _420
REMARK  182  A    between atoms: _420  and  _421
REMARK  183  A    between atoms: _420  and  _423
REMARK  184  A    between atoms: _423  and  _424
REMARK  185  A    between atoms: _429  and  _431
REMARK  186  A    between atoms: _431  and  _432
REMARK  187  A    between atoms: _431  and  _434
REMARK  188  A    between atoms: _434  and  _435
REMARK  189  A    between atoms: _435  and  _436
REMARK  190  A    between atoms: _436  and  _437
REMARK  191  A    between atoms: _446  and  _448
REMARK  192  A    between atoms: _448  and  _449
REMARK  193  A    between atoms: _448  and  _451
REMARK  194  A    between atoms: _451  and  _452
REMARK  195  A    between atoms: _452  and  _453
REMARK  196  A    between atoms: _453  and  _454
REMARK  197  A    between atoms: _463  and  _465
REMARK  198  A    between atoms: _465  and  _466
REMARK  199  A    between atoms: _465  and  _468
REMARK  200  A    between atoms: _468  and  _469
REMARK  201  A    between atoms: _474  and  _476
REMARK  202  A    between atoms: _476  and  _477
REMARK  203  A    between atoms: _476  and  _479
REMARK  204  A    between atoms: _479  and  _480
REMARK  205  A    between atoms: _483  and  _485
REMARK  206  A    between atoms: _485  and  _486
REMARK  207  A    between atoms: _485  and  _488
REMARK  208  A    between atoms: _488  and  _489
REMARK  209  A    between atoms: _492  and  _494
REMARK  210  A    between atoms: _494  and  _495
REMARK  211  A    between atoms: _494  and  _497
REMARK  212  A    between atoms: _497  and  _498
REMARK  213  A    between atoms: _500  and  _502
REMARK  214  A    between atoms: _502  and  _503
REMARK  215  A    between atoms: _502  and  _505
REMARK  216  A    between atoms: _505  and  _506
REMARK  217  A    between atoms: _506  and  _507
REMARK  218  A    between atoms: _507  and  _508
REMARK  219  A    between atoms: _508  and  _509
REMARK  220  A    between atoms: _513  and  _515
REMARK  221  A    between atoms: _515  and  _516
REMARK  222  A    between atoms: _515  and  _518
REMARK  223  A    between atoms: _518  and  _519
REMARK  224  A    between atoms: _522  and  _524
REMARK  225  A    between atoms: _524  and  _525
REMARK  226  A    between atoms: _524  and  _527
REMARK  227  A    between atoms: _529  and  _531
REMARK  228  A    between atoms: _531  and  _532
REMARK  229  A    between atoms: _531  and  _534
REMARK  230  A    between atoms: _534  and  _535
REMARK  231  A    between atoms: _538  and  _540
REMARK  232  A    between atoms: _540  and  _541
REMARK  233  A    between atoms: _540  and  _543
REMARK  234  A    between atoms: _543  and  _544
REMARK  235  A    between atoms: _550  and  _552
REMARK  236  A    between atoms: _552  and  _553
REMARK  237  A    between atoms: _555  and  _557
REMARK  238  A    between atoms: _557  and  _558
REMARK  239  A    between atoms: _557  and  _560
REMARK  240  A    between atoms: _560  and  _561
REMARK  241  A    between atoms: _564  and  _566
REMARK  242  A    between atoms: _566  and  _567
REMARK  243  A    between atoms: _570  and  _572
REMARK  244  A    between atoms: _572  and  _573
REMARK  245  A    between atoms: _572  and  _575
REMARK  246  A    between atoms: _575  and  _576
REMARK  247  A    between atoms: _576  and  _577
REMARK  248  A    between atoms: _577  and  _578
REMARK                            x       y       z     vdW  Elec       q    Type
REMARK                         _______ _______ _______ _____ _____    ______ ____
ROOT
ATOM      1  O   HOH     1     -20.230  10.966 -14.305  0.00  0.00    +0.000 OA
ENDROOT
TORSDOF 0
REMARK  Name = ../refined-set-2016/4ase/4ase_pocket.pdb
REMARK  248 active torsions:
REMARK  status: ('A' for Active; 'I' for Inactive)
REMARK    1  A    between atoms: _1  and  _3
REMARK    2  A    between atoms: _3  and  _4
REMARK    3  A    between atoms: _3  and  _6
REMARK    4  A    between atoms: _6  and  _7
REMARK    5  A    between atoms: _10  and  _12
REMARK    6  A    between atoms: _12  and  _13
REMARK    7  A    between atoms: _12  and  _15
REMARK    8  A    between atoms: _15  and  _16
REMARK    9  A    between atoms: _16  and  _17
REMARK   10  A    between atoms: _17  and  _18
REMARK   11  A    between atoms: _18  and  _19
REMARK   12  A    between atoms: _24  and  _25
REMARK   13  A    between atoms: _30  and  _32
REMARK   14  A    between atoms: _32  and  _33
REMARK   15  A    between atoms: _32  and  _35
REMARK   16  A    between atoms: _35  and  _36
REMARK   17  A    between atoms: _39  and  _41
REMARK   18  A    between atoms: _41  and  _42
REMARK   19  A    between atoms: _44  and  _46
REMARK   20  A    between atoms: _46  and  _47
REMARK   21  A    between atoms: _46  and  _49
REMARK   22  A    between atoms: _49  and  _50
REMARK   23  A    between atoms: _50  and  _51
REMARK   24  A    between atoms: _51  and  _52
REMARK   25  A    between atoms: _61  and  _63
REMARK   26  A    between atoms: _63  and  _64
REMARK   27  A    between atoms: _63  and  _66
REMARK   28  A    between atoms: _66  and  _67
REMARK   29  A    between atoms: _67  and  _68
REMARK   30  A    between atoms: _73  and  _75
REMARK   31  A    between atoms: _75  and  _76
REMARK   32  A    between atoms: _75  and  _78
REMARK   33  A    between atoms: _81  and  _83
REMARK   34  A    between atoms: _83  and  _84
REMARK   35  A    between atoms: _83  and  _86
REMARK   36  A    between atoms: _86  and  _87
REMARK   37  A    between atoms: _90  and  _92
REMARK   38  A    between atoms: _92  and  _93
REMARK   39  A    between atoms: _92  and  _95
REMARK   40  A    between atoms: _95  and  _96
REMARK   41  A    between atoms: _96  and  _97
REMARK   42  A    between atoms: _100  and  _102
REMARK   43  A    between atoms: _102  and  _103
REMARK   44  A    between atoms: _102  and  _105
REMARK   45  A    between atoms: _105  and  _106
REMARK   46  A    between atoms: _109  and  _111
REMARK   47  A    between atoms: _111  and  _112
REMARK   48  A    between atoms: _111  and  _114
REMARK   49  A    between atoms: _117  and  _119
REMARK   50  A    between atoms: _119  and  _120
REMARK   51  A    between atoms: _123  and  _125
REMARK   52  A    between atoms: _125  and  _126
REMARK   53  A    between atoms: _125  and  _128
REMARK   54  A    between atoms: _131  and  _133
REMARK   55  A    between atoms: _133  and  _134
REMARK   56  A    between atoms: _133  and  _136
REMARK   57  A    between atoms: _136  and  _137
REMARK   58  A    between atoms: _137  and  _138
REMARK   59  A    between atoms: _138  and  _139
REMARK   60  A    between atoms: _139  and  _140
REMARK   61  A    between atoms: _144  and  _146
REMARK   62  A    between atoms: _146  and  _147
REMARK   63  A    between atoms: _146  and  _149
REMARK   64  A    between atoms: _149  and  _150
REMARK   65  A    between atoms: _150  and  _151
REMARK   66  A    between atoms: _153  and  _155
REMARK   67  A    between atoms: _155  and  _156
REMARK   68  A    between atoms: _155  and  _158
REMARK   69  A    between atoms: _158  and  _159
REMARK   70  A    between atoms: _162  and  _164
REMARK   71  A    between atoms: _164  and  _165
REMARK   72  A    between atoms: _164  and  _167
REMARK   73  A    between atoms: _167  and  _168
REMARK   74  A    between atoms: _170  and  _172
REMARK   75  A    between atoms: _172  and  _173
REMARK   76  A    between atoms: _172  and  _175
REMARK   77  A    between atoms: _175  and  _176
REMARK   78  A    between atoms: _176  and  _177
REMARK   79  A    between atoms: _180  and  _182
REMARK   80  A    between atoms: _182  and  _183
REMARK   81  A    between atoms: _182  and  _185
REMARK   82  A    between atoms: _185  and  _186
REMARK   83  A    between atoms: _189  and  _191
REMARK   84  A    between atoms: _191  and  _192
REMARK   85  A    between atoms: _191  and  _194
REMARK   86  A    between atoms: _194  and  _195
REMARK   87  A    between atoms: _198  and  _200
REMARK   88  A    between atoms: _200  and  _201
REMARK   89  A    between atoms: _200  and  _203
REMARK   90  A    between atoms: _203  and  _204
REMARK   91  A    between atoms: _207  and  _209
REMARK   92  A    between atoms: _209  and  _210
REMARK   93  A    between atoms: _209  and  _212
REMARK   94  A    between atoms: _212  and  _213
REMARK   95  A    between atoms: _216  and  _218
REMARK   96  A    between atoms: _218  and  _219
REMARK   97  A    between atoms: _218  and  _221
REMARK   98  A    between atoms: _221  and  _222
REMARK   99  A    between atoms: _225  and  _227
REMARK  100  A    between atoms: _227  and  _228
REMARK  101  A    between atoms: _227  and  _230
REMARK  102  A    between atoms: _233  and  _235
REMARK  103  A    between atoms: _235  and  _236
REMARK  104  A    between atoms: _235  and  _238
REMARK  105  A    between atoms: _241  and  _243
REMARK  106  A    between atoms: _243  and  _244
REMARK  107  A    between atoms: _243  and  _246
REMARK  108  A    between atoms: _246  and  _247
REMARK  109  A    between atoms: _252  and  _254
REMARK  110  A    between atoms: _254  and  _255
REMARK  111  A    between atoms: _254  and  _257
REMARK  112  A    between atoms: _257  and  _258
REMARK  113  A    between atoms: _261  and  _263
REMARK  114  A    between atoms: _263  and  _264
REMARK  115  A    between atoms: _263  and  _266
REMARK  116  A    between atoms: _266  and  _267
REMARK  117  A    between atoms: _270  and  _272
REMARK  118  A    between atoms: _272  and  _273
REMARK  119  A    between atoms: _275  and  _277
REMARK  120  A    between atoms: _277  and  _278
REMARK  121  A    between atoms: _277  and  _280
REMARK  122  A    between atoms: _280  and  _281
REMARK  123  A    between atoms: _281  and  _282
REMARK  124  A    between atoms: _284  and  _286
REMARK  125  A    between atoms: _286  and  _287
REMARK  126  A    between atoms: _286  and  _289
REMARK  127  A    between atoms: _292  and  _294
REMARK  128  A    between atoms: _294  and  _295
REMARK  129  A    between atoms: _294  and  _297
REMARK  130  A    between atoms: _297  and  _298
REMARK  131  A    between atoms: _301  and  _303
REMARK  132  A    between atoms: _303  and  _304
REMARK  133  A    between atoms: _303  and  _306
REMARK  134  A    between atoms: _309  and  _311
REMARK  135  A    between atoms: _311  and  _312
REMARK  136  A    between atoms: _311  and  _314
REMARK  137  A    between atoms: _314  and  _315
REMARK  138  A    between atoms: _315  and  _316
REMARK  139  A    between atoms: _319  and  _321
REMARK  140  A    between atoms: _321  and  _322
REMARK  141  A    between atoms: _321  and  _324
REMARK  142  A    between atoms: _324  and  _325
REMARK  143  A    between atoms: _331  and  _333
REMARK  144  A    between atoms: _333  and  _334
REMARK  145  A    between atoms: _333  and  _336
REMARK  146  A    between atoms: _338  and  _340
REMARK  147  A    between atoms: _340  and  _341
REMARK  148  A    between atoms: _340  and  _343
REMARK  149  A    between atoms: _343  and  _344
REMARK  150  A    between atoms: _344  and  _345
REMARK  151  A    between atoms: _345  and  _346
REMARK  152  A    between atoms: _346  and  _347
REMARK  153  A    between atoms: _351  and  _353
REMARK  154  A    between atoms: _353  and  _354
REMARK  155  A    between atoms: _353  and  _356
REMARK  156  A    between atoms: _356  and  _357
REMARK  157  A    between atoms: _363  and  _365
REMARK  158  A    between atoms: _365  and  _366
REMARK  159  A    between atoms: _368  and  _370
REMARK  160  A    between atoms: _370  and  _371
REMARK  161  A    between atoms: _370  and  _373
REMARK  162  A    between atoms: _373  and  _374
REMARK  163  A    between atoms: _379  and  _381
REMARK  164  A    between atoms: _381  and  _382
REMARK  165  A    between atoms: _384  and  _386
REMARK  166  A    between atoms: _386  and  _387
REMARK  167  A    between atoms: _386  and  _389
REMARK  168  A    between atoms: _389  and  _390
REMARK  169  A    between atoms: _390  and  _391
REMARK  170  A    between atoms: _393  and  _395
REMARK  171  A    between atoms: _395  and  _396
REMARK  172  A    between atoms: _395  and  _398
REMARK  173  A    between atoms: _398  and  _399
REMARK  174  A    between atoms: _402  and  _404
REMARK  175  A    between atoms: _404  and  _405
REMARK  176  A    between atoms: _404  and  _407
REMARK  177  A    between atoms: _409  and  _411
REMARK  178  A    between atoms: _411  and  _412
REMARK  179  A    between atoms: _411  and  _414
REMARK  180  A    between atoms: _414  and  _415
REMARK  181  A    between atoms: _418  and  _420
REMARK  182  A    between atoms: _420  and  _421
REMARK  183  A    between atoms: _420  and  _423
REMARK  184  A    between atoms: _423  and  _424
REMARK  185  A    between atoms: _429  and  _431
REMARK  186  A    between atoms: _431  and  _432
REMARK  187  A    between atoms: _431  and  _434
REMARK  188  A    between atoms: _434  and  _435
REMARK  189  A    between atoms: _435  and  _436
REMARK  190  A    between atoms: _436  and  _437
REMARK  191  A    between atoms: _446  and  _448
REMARK  192  A    between atoms: _448  and  _449
REMARK  193  A    between atoms: _448  and  _451
REMARK  194  A    between atoms: _451  and  _452
REMARK  195  A    between atoms: _452  and  _453
REMARK  196  A    between atoms: _453  and  _454
REMARK  197  A    between atoms: _463  and  _465
REMARK  198  A    between atoms: _465  and  _466
REMARK  199  A    between atoms: _465  and  _468
REMARK  200  A    between atoms: _468  and  _469
REMARK  201  A    between atoms: _474  and  _476
REMARK  202  A    between atoms: _476  and  _477
REMARK  203  A    between atoms: _476  and  _479
REMARK  204  A    between atoms: _479  and  _480
REMARK  205  A    between atoms: _483  and  _485
REMARK  206  A    between atoms: _485  and  _486
REMARK  207  A    between atoms: _485  and  _488
REMARK  208  A    between atoms: _488  and  _489
REMARK  209  A    between atoms: _492  and  _494
REMARK  210  A    between atoms: _494  and  _495
REMARK  211  A    between atoms: _494  and  _497
REMARK  212  A    between atoms: _497  and  _498
REMARK  213  A    between atoms: _500  and  _502
REMARK  214  A    between atoms: _502  and  _503
REMARK  215  A    between atoms: _502  and  _505
REMARK  216  A    between atoms: _505  and  _506
REMARK  217  A    between atoms: _506  and  _507
REMARK  218  A    between atoms: _507  and  _508
REMARK  219  A    between atoms: _508  and  _509
REMARK  220  A    between atoms: _513  and  _515
REMARK  221  A    between atoms: _515  and  _516
REMARK  222  A    between atoms: _515  and  _518
REMARK  223  A    between atoms: _518  and  _519
REMARK  224  A    between atoms: _522  and  _524
REMARK  225  A    between atoms: _524  and  _525
REMARK  226  A    between atoms: _524  and  _527
REMARK  227  A    between atoms: _529  and  _531
REMARK  228  A    between atoms: _531  and  _532
REMARK  229  A    between atoms: _531  and  _534
REMARK  230  A    between atoms: _534  and  _535
REMARK  231  A    between atoms: _538  and  _540
REMARK  232  A    between atoms: _540  and  _541
REMARK  233  A    between atoms: _540  and  _543
REMARK  234  A    between atoms: _543  and  _544
REMARK  235  A    between atoms: _550  and  _552
REMARK  236  A    between atoms: _552  and  _553
REMARK  237  A    between atoms: _555  and  _557
REMARK  238  A    between atoms: _557  and  _558
REMARK  239  A    between atoms: _557  and  _560
REMARK  240  A    between atoms: _560  and  _561
REMARK  241  A    between atoms: _564  and  _566
REMARK  242  A    between atoms: _566  and  _567
REMARK  243  A    between atoms: _570  and  _572
REMARK  244  A    between atoms: _572  and  _573
REMARK  245  A    between atoms: _572  and  _575
REMARK  246  A    between atoms: _575  and  _576
REMARK  247  A    between atoms: _576  and  _577
REMARK  248  A    between atoms: _577  and  _578
REMARK                            x       y       z     vdW  Elec       q    Type
REMARK                         _______ _______ _______ _____ _____    ______ ____
ROOT
ATOM      1  O   HOH     1     -14.595   7.442 -17.783  0.00  0.00    +0.000 OA
ENDROOT
TORSDOF 0
REMARK  Name = ../refined-set-2016/4ase/4ase_pocket.pdb
REMARK  248 active torsions:
REMARK  status: ('A' for Active; 'I' for Inactive)
REMARK    1  A    between atoms: _1  and  _3
REMARK    2  A    between atoms: _3  and  _4
REMARK    3  A    between atoms: _3  and  _6
REMARK    4  A    between atoms: _6  and  _7
REMARK    5  A    between atoms: _10  and  _12
REMARK    6  A    between atoms: _12  and  _13
REMARK    7  A    between atoms: _12  and  _15
REMARK    8  A    between atoms: _15  and  _16
REMARK    9  A    between atoms: _16  and  _17
REMARK   10  A    between atoms: _17  and  _18
REMARK   11  A    between atoms: _18  and  _19
REMARK   12  A    between atoms: _24  and  _25
REMARK   13  A    between atoms: _30  and  _32
REMARK   14  A    between atoms: _32  and  _33
REMARK   15  A    between atoms: _32  and  _35
REMARK   16  A    between atoms: _35  and  _36
REMARK   17  A    between atoms: _39  and  _41
REMARK   18  A    between atoms: _41  and  _42
REMARK   19  A    between atoms: _44  and  _46
REMARK   20  A    between atoms: _46  and  _47
REMARK   21  A    between atoms: _46  and  _49
REMARK   22  A    between atoms: _49  and  _50
REMARK   23  A    between atoms: _50  and  _51
REMARK   24  A    between atoms: _51  and  _52
REMARK   25  A    between atoms: _61  and  _63
REMARK   26  A    between atoms: _63  and  _64
REMARK   27  A    between atoms: _63  and  _66
REMARK   28  A    between atoms: _66  and  _67
REMARK   29  A    between atoms: _67  and  _68
REMARK   30  A    between atoms: _73  and  _75
REMARK   31  A    between atoms: _75  and  _76
REMARK   32  A    between atoms: _75  and  _78
REMARK   33  A    between atoms: _81  and  _83
REMARK   34  A    between atoms: _83  and  _84
REMARK   35  A    between atoms: _83  and  _86
REMARK   36  A    between atoms: _86  and  _87
REMARK   37  A    between atoms: _90  and  _92
REMARK   38  A    between atoms: _92  and  _93
REMARK   39  A    between atoms: _92  and  _95
REMARK   40  A    between atoms: _95  and  _96
REMARK   41  A    between atoms: _96  and  _97
REMARK   42  A    between atoms: _100  and  _102
REMARK   43  A    between atoms: _102  and  _103
REMARK   44  A    between atoms: _102  and  _105
REMARK   45  A    between atoms: _105  and  _106
REMARK   46  A    between atoms: _109  and  _111
REMARK   47  A    between atoms: _111  and  _112
REMARK   48  A    between atoms: _111  and  _114
REMARK   49  A    between atoms: _117  and  _119
REMARK   50  A    between atoms: _119  and  _120
REMARK   51  A    between atoms: _123  and  _125
REMARK   52  A    between atoms: _125  and  _126
REMARK   53  A    between atoms: _125  and  _128
REMARK   54  A    between atoms: _131  and  _133
REMARK   55  A    between atoms: _133  and  _134
REMARK   56  A    between atoms: _133  and  _136
REMARK   57  A    between atoms: _136  and  _137
REMARK   58  A    between atoms: _137  and  _138
REMARK   59  A    between atoms: _138  and  _139
REMARK   60  A    between atoms: _139  and  _140
REMARK   61  A    between atoms: _144  and  _146
REMARK   62  A    between atoms: _146  and  _147
REMARK   63  A    between atoms: _146  and  _149
REMARK   64  A    between atoms: _149  and  _150
REMARK   65  A    between atoms: _150  and  _151
REMARK   66  A    between atoms: _153  and  _155
REMARK   67  A    between atoms: _155  and  _156
REMARK   68  A    between atoms: _155  and  _158
REMARK   69  A    between atoms: _158  and  _159
REMARK   70  A    between atoms: _162  and  _164
REMARK   71  A    between atoms: _164  and  _165
REMARK   72  A    between atoms: _164  and  _167
REMARK   73  A    between atoms: _167  and  _168
REMARK   74  A    between atoms: _170  and  _172
REMARK   75  A    between atoms: _172  and  _173
REMARK   76  A    between atoms: _172  and  _175
REMARK   77  A    between atoms: _175  and  _176
REMARK   78  A    between atoms: _176  and  _177
REMARK   79  A    between atoms: _180  and  _182
REMARK   80  A    between atoms: _182  and  _183
REMARK   81  A    between atoms: _182  and  _185
REMARK   82  A    between atoms: _185  and  _186
REMARK   83  A    between atoms: _189  and  _191
REMARK   84  A    between atoms: _191  and  _192
REMARK   85  A    between atoms: _191  and  _194
REMARK   86  A    between atoms: _194  and  _195
REMARK   87  A    between atoms: _198  and  _200
REMARK   88  A    between atoms: _200  and  _201
REMARK   89  A    between atoms: _200  and  _203
REMARK   90  A    between atoms: _203  and  _204
REMARK   91  A    between atoms: _207  and  _209
REMARK   92  A    between atoms: _209  and  _210
REMARK   93  A    between atoms: _209  and  _212
REMARK   94  A    between atoms: _212  and  _213
REMARK   95  A    between atoms: _216  and  _218
REMARK   96  A    between atoms: _218  and  _219
REMARK   97  A    between atoms: _218  and  _221
REMARK   98  A    between atoms: _221  and  _222
REMARK   99  A    between atoms: _225  and  _227
REMARK  100  A    between atoms: _227  and  _228
REMARK  101  A    between atoms: _227  and  _230
REMARK  102  A    between atoms: _233  and  _235
REMARK  103  A    between atoms: _235  and  _236
REMARK  104  A    between atoms: _235  and  _238
REMARK  105  A    between atoms: _241  and  _243
REMARK  106  A    between atoms: _243  and  _244
REMARK  107  A    between atoms: _243  and  _246
REMARK  108  A    between atoms: _246  and  _247
REMARK  109  A    between atoms: _252  and  _254
REMARK  110  A    between atoms: _254  and  _255
REMARK  111  A    between atoms: _254  and  _257
REMARK  112  A    between atoms: _257  and  _258
REMARK  113  A    between atoms: _261  and  _263
REMARK  114  A    between atoms: _263  and  _264
REMARK  115  A    between atoms: _263  and  _266
REMARK  116  A    between atoms: _266  and  _267
REMARK  117  A    between atoms: _270  and  _272
REMARK  118  A    between atoms: _272  and  _273
REMARK  119  A    between atoms: _275  and  _277
REMARK  120  A    between atoms: _277  and  _278
REMARK  121  A    between atoms: _277  and  _280
REMARK  122  A    between atoms: _280  and  _281
REMARK  123  A    between atoms: _281  and  _282
REMARK  124  A    between atoms: _284  and  _286
REMARK  125  A    between atoms: _286  and  _287
REMARK  126  A    between atoms: _286  and  _289
REMARK  127  A    between atoms: _292  and  _294
REMARK  128  A    between atoms: _294  and  _295
REMARK  129  A    between atoms: _294  and  _297
REMARK  130  A    between atoms: _297  and  _298
REMARK  131  A    between atoms: _301  and  _303
REMARK  132  A    between atoms: _303  and  _304
REMARK  133  A    between atoms: _303  and  _306
REMARK  134  A    between atoms: _309  and  _311
REMARK  135  A    between atoms: _311  and  _312
REMARK  136  A    between atoms: _311  and  _314
REMARK  137  A    between atoms: _314  and  _315
REMARK  138  A    between atoms: _315  and  _316
REMARK  139  A    between atoms: _319  and  _321
REMARK  140  A    between atoms: _321  and  _322
REMARK  141  A    between atoms: _321  and  _324
REMARK  142  A    between atoms: _324  and  _325
REMARK  143  A    between atoms: _331  and  _333
REMARK  144  A    between atoms: _333  and  _334
REMARK  145  A    between atoms: _333  and  _336
REMARK  146  A    between atoms: _338  and  _340
REMARK  147  A    between atoms: _340  and  _341
REMARK  148  A    between atoms: _340  and  _343
REMARK  149  A    between atoms: _343  and  _344
REMARK  150  A    between atoms: _344  and  _345
REMARK  151  A    between atoms: _345  and  _346
REMARK  152  A    between atoms: _346  and  _347
REMARK  153  A    between atoms: _351  and  _353
REMARK  154  A    between atoms: _353  and  _354
REMARK  155  A    between atoms: _353  and  _356
REMARK  156  A    between atoms: _356  and  _357
REMARK  157  A    between atoms: _363  and  _365
REMARK  158  A    between atoms: _365  and  _366
REMARK  159  A    between atoms: _368  and  _370
REMARK  160  A    between atoms: _370  and  _371
REMARK  161  A    between atoms: _370  and  _373
REMARK  162  A    between atoms: _373  and  _374
REMARK  163  A    between atoms: _379  and  _381
REMARK  164  A    between atoms: _381  and  _382
REMARK  165  A    between atoms: _384  and  _386
REMARK  166  A    between atoms: _386  and  _387
REMARK  167  A    between atoms: _386  and  _389
REMARK  168  A    between atoms: _389  and  _390
REMARK  169  A    between atoms: _390  and  _391
REMARK  170  A    between atoms: _393  and  _395
REMARK  171  A    between atoms: _395  and  _396
REMARK  172  A    between atoms: _395  and  _398
REMARK  173  A    between atoms: _398  and  _399
REMARK  174  A    between atoms: _402  and  _404
REMARK  175  A    between atoms: _404  and  _405
REMARK  176  A    between atoms: _404  and  _407
REMARK  177  A    between atoms: _409  and  _411
REMARK  178  A    between atoms: _411  and  _412
REMARK  179  A    between atoms: _411  and  _414
REMARK  180  A    between atoms: _414  and  _415
REMARK  181  A    between atoms: _418  and  _420
REMARK  182  A    between atoms: _420  and  _421
REMARK  183  A    between atoms: _420  and  _423
REMARK  184  A    between atoms: _423  and  _424
REMARK  185  A    between atoms: _429  and  _431
REMARK  186  A    between atoms: _431  and  _432
REMARK  187  A    between atoms: _431  and  _434
REMARK  188  A    between atoms: _434  and  _435
REMARK  189  A    between atoms: _435  and  _436
REMARK  190  A    between atoms: _436  and  _437
REMARK  191  A    between atoms: _446  and  _448
REMARK  192  A    between atoms: _448  and  _449
REMARK  193  A    between atoms: _448  and  _451
REMARK  194  A    between atoms: _451  and  _452
REMARK  195  A    between atoms: _452  and  _453
REMARK  196  A    between atoms: _453  and  _454
REMARK  197  A    between atoms: _463  and  _465
REMARK  198  A    between atoms: _465  and  _466
REMARK  199  A    between atoms: _465  and  _468
REMARK  200  A    between atoms: _468  and  _469
REMARK  201  A    between atoms: _474  and  _476
REMARK  202  A    between atoms: _476  and  _477
REMARK  203  A    between atoms: _476  and  _479
REMARK  204  A    between atoms: _479  and  _480
REMARK  205  A    between atoms: _483  and  _485
REMARK  206  A    between atoms: _485  and  _486
REMARK  207  A    between atoms: _485  and  _488
REMARK  208  A    between atoms: _488  and  _489
REMARK  209  A    between atoms: _492  and  _494
REMARK  210  A    between atoms: _494  and  _495
REMARK  211  A    between atoms: _494  and  _497
REMARK  212  A    between atoms: _497  and  _498
REMARK  213  A    between atoms: _500  and  _502
REMARK  214  A    between atoms: _502  and  _503
REMARK  215  A    between atoms: _502  and  _505
REMARK  216  A    between atoms: _505  and  _506
REMARK  217  A    between atoms: _506  and  _507
REMARK  218  A    between atoms: _507  and  _508
REMARK  219  A    between atoms: _508  and  _509
REMARK  220  A    between atoms: _513  and  _515
REMARK  221  A    between atoms: _515  and  _516
REMARK  222  A    between atoms: _515  and  _518
REMARK  223  A    between atoms: _518  and  _519
REMARK  224  A    between atoms: _522  and  _524
REMARK  225  A    between atoms: _524  and  _525
REMARK  226  A    between atoms: _524  and  _527
REMARK  227  A    between atoms: _529  and  _531
REMARK  228  A    between atoms: _531  and  _532
REMARK  229  A    between atoms: _531  and  _534
REMARK  230  A    between atoms: _534  and  _535
REMARK  231  A    between atoms: _538  and  _540
REMARK  232  A    between atoms: _540  and  _541
REMARK  233  A    between atoms: _540  and  _543
REMARK  234  A    between atoms: _543  and  _544
REMARK  235  A    between atoms: _550  and  _552
REMARK  236  A    between atoms: _552  and  _553
REMARK  237  A    between atoms: _555  and  _557
REMARK  238  A    between atoms: _557  and  _558
REMARK  239  A    between atoms: _557  and  _560
REMARK  240  A    between atoms: _560  and  _561
REMARK  241  A    between atoms: _564  and  _566
REMARK  242  A    between atoms: _566  and  _567
REMARK  243  A    between atoms: _570  and  _572
REMARK  244  A    between atoms: _572  and  _573
REMARK  245  A    between atoms: _572  and  _575
REMARK  246  A    between atoms: _575  and  _576
REMARK  247  A    between atoms: _576  and  _577
REMARK  248  A    between atoms: _577  and  _578
REMARK                            x       y       z     vdW  Elec       q    Type
REMARK                         _______ _______ _______ _____ _____    ______ ____
ROOT
ATOM      1  O   HOH     1     -12.363   5.320 -15.599  0.00  0.00    +0.000 OA
ENDROOT
TORSDOF 0
REMARK  Name = ../refined-set-2016/4ase/4ase_pocket.pdb
REMARK  248 active torsions:
REMARK  status: ('A' for Active; 'I' for Inactive)
REMARK    1  A    between atoms: _1  and  _3
REMARK    2  A    between atoms: _3  and  _4
REMARK    3  A    between atoms: _3  and  _6
REMARK    4  A    between atoms: _6  and  _7
REMARK    5  A    between atoms: _10  and  _12
REMARK    6  A    between atoms: _12  and  _13
REMARK    7  A    between atoms: _12  and  _15
REMARK    8  A    between atoms: _15  and  _16
REMARK    9  A    between atoms: _16  and  _17
REMARK   10  A    between atoms: _17  and  _18
REMARK   11  A    between atoms: _18  and  _19
REMARK   12  A    between atoms: _24  and  _25
REMARK   13  A    between atoms: _30  and  _32
REMARK   14  A    between atoms: _32  and  _33
REMARK   15  A    between atoms: _32  and  _35
REMARK   16  A    between atoms: _35  and  _36
REMARK   17  A    between atoms: _39  and  _41
REMARK   18  A    between atoms: _41  and  _42
REMARK   19  A    between atoms: _44  and  _46
REMARK   20  A    between atoms: _46  and  _47
REMARK   21  A    between atoms: _46  and  _49
REMARK   22  A    between atoms: _49  and  _50
REMARK   23  A    between atoms: _50  and  _51
REMARK   24  A    between atoms: _51  and  _52
REMARK   25  A    between atoms: _61  and  _63
REMARK   26  A    between atoms: _63  and  _64
REMARK   27  A    between atoms: _63  and  _66
REMARK   28  A    between atoms: _66  and  _67
REMARK   29  A    between atoms: _67  and  _68
REMARK   30  A    between atoms: _73  and  _75
REMARK   31  A    between atoms: _75  and  _76
REMARK   32  A    between atoms: _75  and  _78
REMARK   33  A    between atoms: _81  and  _83
REMARK   34  A    between atoms: _83  and  _84
REMARK   35  A    between atoms: _83  and  _86
REMARK   36  A    between atoms: _86  and  _87
REMARK   37  A    between atoms: _90  and  _92
REMARK   38  A    between atoms: _92  and  _93
REMARK   39  A    between atoms: _92  and  _95
REMARK   40  A    between atoms: _95  and  _96
REMARK   41  A    between atoms: _96  and  _97
REMARK   42  A    between atoms: _100  and  _102
REMARK   43  A    between atoms: _102  and  _103
REMARK   44  A    between atoms: _102  and  _105
REMARK   45  A    between atoms: _105  and  _106
REMARK   46  A    between atoms: _109  and  _111
REMARK   47  A    between atoms: _111  and  _112
REMARK   48  A    between atoms: _111  and  _114
REMARK   49  A    between atoms: _117  and  _119
REMARK   50  A    between atoms: _119  and  _120
REMARK   51  A    between atoms: _123  and  _125
REMARK   52  A    between atoms: _125  and  _126
REMARK   53  A    between atoms: _125  and  _128
REMARK   54  A    between atoms: _131  and  _133
REMARK   55  A    between atoms: _133  and  _134
REMARK   56  A    between atoms: _133  and  _136
REMARK   57  A    between atoms: _136  and  _137
REMARK   58  A    between atoms: _137  and  _138
REMARK   59  A    between atoms: _138  and  _139
REMARK   60  A    between atoms: _139  and  _140
REMARK   61  A    between atoms: _144  and  _146
REMARK   62  A    between atoms: _146  and  _147
REMARK   63  A    between atoms: _146  and  _149
REMARK   64  A    between atoms: _149  and  _150
REMARK   65  A    between atoms: _150  and  _151
REMARK   66  A    between atoms: _153  and  _155
REMARK   67  A    between atoms: _155  and  _156
REMARK   68  A    between atoms: _155  and  _158
REMARK   69  A    between atoms: _158  and  _159
REMARK   70  A    between atoms: _162  and  _164
REMARK   71  A    between atoms: _164  and  _165
REMARK   72  A    between atoms: _164  and  _167
REMARK   73  A    between atoms: _167  and  _168
REMARK   74  A    between atoms: _170  and  _172
REMARK   75  A    between atoms: _172  and  _173
REMARK   76  A    between atoms: _172  and  _175
REMARK   77  A    between atoms: _175  and  _176
REMARK   78  A    between atoms: _176  and  _177
REMARK   79  A    between atoms: _180  and  _182
REMARK   80  A    between atoms: _182  and  _183
REMARK   81  A    between atoms: _182  and  _185
REMARK   82  A    between atoms: _185  and  _186
REMARK   83  A    between atoms: _189  and  _191
REMARK   84  A    between atoms: _191  and  _192
REMARK   85  A    between atoms: _191  and  _194
REMARK   86  A    between atoms: _194  and  _195
REMARK   87  A    between atoms: _198  and  _200
REMARK   88  A    between atoms: _200  and  _201
REMARK   89  A    between atoms: _200  and  _203
REMARK   90  A    between atoms: _203  and  _204
REMARK   91  A    between atoms: _207  and  _209
REMARK   92  A    between atoms: _209  and  _210
REMARK   93  A    between atoms: _209  and  _212
REMARK   94  A    between atoms: _212  and  _213
REMARK   95  A    between atoms: _216  and  _218
REMARK   96  A    between atoms: _218  and  _219
REMARK   97  A    between atoms: _218  and  _221
REMARK   98  A    between atoms: _221  and  _222
REMARK   99  A    between atoms: _225  and  _227
REMARK  100  A    between atoms: _227  and  _228
REMARK  101  A    between atoms: _227  and  _230
REMARK  102  A    between atoms: _233  and  _235
REMARK  103  A    between atoms: _235  and  _236
REMARK  104  A    between atoms: _235  and  _238
REMARK  105  A    between atoms: _241  and  _243
REMARK  106  A    between atoms: _243  and  _244
REMARK  107  A    between atoms: _243  and  _246
REMARK  108  A    between atoms: _246  and  _247
REMARK  109  A    between atoms: _252  and  _254
REMARK  110  A    between atoms: _254  and  _255
REMARK  111  A    between atoms: _254  and  _257
REMARK  112  A    between atoms: _257  and  _258
REMARK  113  A    between atoms: _261  and  _263
REMARK  114  A    between atoms: _263  and  _264
REMARK  115  A    between atoms: _263  and  _266
REMARK  116  A    between atoms: _266  and  _267
REMARK  117  A    between atoms: _270  and  _272
REMARK  118  A    between atoms: _272  and  _273
REMARK  119  A    between atoms: _275  and  _277
REMARK  120  A    between atoms: _277  and  _278
REMARK  121  A    between atoms: _277  and  _280
REMARK  122  A    between atoms: _280  and  _281
REMARK  123  A    between atoms: _281  and  _282
REMARK  124  A    between atoms: _284  and  _286
REMARK  125  A    between atoms: _286  and  _287
REMARK  126  A    between atoms: _286  and  _289
REMARK  127  A    between atoms: _292  and  _294
REMARK  128  A    between atoms: _294  and  _295
REMARK  129  A    between atoms: _294  and  _297
REMARK  130  A    between atoms: _297  and  _298
REMARK  131  A    between atoms: _301  and  _303
REMARK  132  A    between atoms: _303  and  _304
REMARK  133  A    between atoms: _303  and  _306
REMARK  134  A    between atoms: _309  and  _311
REMARK  135  A    between atoms: _311  and  _312
REMARK  136  A    between atoms: _311  and  _314
REMARK  137  A    between atoms: _314  and  _315
REMARK  138  A    between atoms: _315  and  _316
REMARK  139  A    between atoms: _319  and  _321
REMARK  140  A    between atoms: _321  and  _322
REMARK  141  A    between atoms: _321  and  _324
REMARK  142  A    between atoms: _324  and  _325
REMARK  143  A    between atoms: _331  and  _333
REMARK  144  A    between atoms: _333  and  _334
REMARK  145  A    between atoms: _333  and  _336
REMARK  146  A    between atoms: _338  and  _340
REMARK  147  A    between atoms: _340  and  _341
REMARK  148  A    between atoms: _340  and  _343
REMARK  149  A    between atoms: _343  and  _344
REMARK  150  A    between atoms: _344  and  _345
REMARK  151  A    between atoms: _345  and  _346
REMARK  152  A    between atoms: _346  and  _347
REMARK  153  A    between atoms: _351  and  _353
REMARK  154  A    between atoms: _353  and  _354
REMARK  155  A    between atoms: _353  and  _356
REMARK  156  A    between atoms: _356  and  _357
REMARK  157  A    between atoms: _363  and  _365
REMARK  158  A    between atoms: _365  and  _366
REMARK  159  A    between atoms: _368  and  _370
REMARK  160  A    between atoms: _370  and  _371
REMARK  161  A    between atoms: _370  and  _373
REMARK  162  A    between atoms: _373  and  _374
REMARK  163  A    between atoms: _379  and  _381
REMARK  164  A    between atoms: _381  and  _382
REMARK  165  A    between atoms: _384  and  _386
REMARK  166  A    between atoms: _386  and  _387
REMARK  167  A    between atoms: _386  and  _389
REMARK  168  A    between atoms: _389  and  _390
REMARK  169  A    between atoms: _390  and  _391
REMARK  170  A    between atoms: _393  and  _395
REMARK  171  A    between atoms: _395  and  _396
REMARK  172  A    between atoms: _395  and  _398
REMARK  173  A    between atoms: _398  and  _399
REMARK  174  A    between atoms: _402  and  _404
REMARK  175  A    between atoms: _404  and  _405
REMARK  176  A    between atoms: _404  and  _407
REMARK  177  A    between atoms: _409  and  _411
REMARK  178  A    between atoms: _411  and  _412
REMARK  179  A    between atoms: _411  and  _414
REMARK  180  A    between atoms: _414  and  _415
REMARK  181  A    between atoms: _418  and  _420
REMARK  182  A    between atoms: _420  and  _421
REMARK  183  A    between atoms: _420  and  _423
REMARK  184  A    between atoms: _423  and  _424
REMARK  185  A    between atoms: _429  and  _431
REMARK  186  A    between atoms: _431  and  _432
REMARK  187  A    between atoms: _431  and  _434
REMARK  188  A    between atoms: _434  and  _435
REMARK  189  A    between atoms: _435  and  _436
REMARK  190  A    between atoms: _436  and  _437
REMARK  191  A    between atoms: _446  and  _448
REMARK  192  A    between atoms: _448  and  _449
REMARK  193  A    between atoms: _448  and  _451
REMARK  194  A    between atoms: _451  and  _452
REMARK  195  A    between atoms: _452  and  _453
REMARK  196  A    between atoms: _453  and  _454
REMARK  197  A    between atoms: _463  and  _465
REMARK  198  A    between atoms: _465  and  _466
REMARK  199  A    between atoms: _465  and  _468
REMARK  200  A    between atoms: _468  and  _469
REMARK  201  A    between atoms: _474  and  _476
REMARK  202  A    between atoms: _476  and  _477
REMARK  203  A    between atoms: _476  and  _479
REMARK  204  A    between atoms: _479  and  _480
REMARK  205  A    between atoms: _483  and  _485
REMARK  206  A    between atoms: _485  and  _486
REMARK  207  A    between atoms: _485  and  _488
REMARK  208  A    between atoms: _488  and  _489
REMARK  209  A    between atoms: _492  and  _494
REMARK  210  A    between atoms: _494  and  _495
REMARK  211  A    between atoms: _494  and  _497
REMARK  212  A    between atoms: _497  and  _498
REMARK  213  A    between atoms: _500  and  _502
REMARK  214  A    between atoms: _502  and  _503
REMARK  215  A    between atoms: _502  and  _505
REMARK  216  A    between atoms: _505  and  _506
REMARK  217  A    between atoms: _506  and  _507
REMARK  218  A    between atoms: _507  and  _508
REMARK  219  A    between atoms: _508  and  _509
REMARK  220  A    between atoms: _513  and  _515
REMARK  221  A    between atoms: _515  and  _516
REMARK  222  A    between atoms: _515  and  _518
REMARK  223  A    between atoms: _518  and  _519
REMARK  224  A    between atoms: _522  and  _524
REMARK  225  A    between atoms: _524  and  _525
REMARK  226  A    between atoms: _524  and  _527
REMARK  227  A    between atoms: _529  and  _531
REMARK  228  A    between atoms: _531  and  _532
REMARK  229  A    between atoms: _531  and  _534
REMARK  230  A    between atoms: _534  and  _535
REMARK  231  A    between atoms: _538  and  _540
REMARK  232  A    between atoms: _540  and  _541
REMARK  233  A    between atoms: _540  and  _543
REMARK  234  A    between atoms: _543  and  _544
REMARK  235  A    between atoms: _550  and  _552
REMARK  236  A    between atoms: _552  and  _553
REMARK  237  A    between atoms: _555  and  _557
REMARK  238  A    between atoms: _557  and  _558
REMARK  239  A    between atoms: _557  and  _560
REMARK  240  A    between atoms: _560  and  _561
REMARK  241  A    between atoms: _564  and  _566
REMARK  242  A    between atoms: _566  and  _567
REMARK  243  A    between atoms: _570  and  _572
REMARK  244  A    between atoms: _572  and  _573
REMARK  245  A    between atoms: _572  and  _575
REMARK  246  A    between atoms: _575  and  _576
REMARK  247  A    between atoms: _576  and  _577
REMARK  248  A    between atoms: _577  and  _578
REMARK                            x       y       z     vdW  Elec       q    Type
REMARK                         _______ _______ _______ _____ _____    ______ ____
ROOT
ATOM      1  O   HOH     1     -11.223  10.610 -16.890  0.00  0.00    +0.000 OA
ENDROOT
TORSDOF 0
REMARK  Name = ../refined-set-2016/4ase/4ase_pocket.pdb
REMARK  248 active torsions:
REMARK  status: ('A' for Active; 'I' for Inactive)
REMARK    1  A    between atoms: _1  and  _3
REMARK    2  A    between atoms: _3  and  _4
REMARK    3  A    between atoms: _3  and  _6
REMARK    4  A    between atoms: _6  and  _7
REMARK    5  A    between atoms: _10  and  _12
REMARK    6  A    between atoms: _12  and  _13
REMARK    7  A    between atoms: _12  and  _15
REMARK    8  A    between atoms: _15  and  _16
REMARK    9  A    between atoms: _16  and  _17
REMARK   10  A    between atoms: _17  and  _18
REMARK   11  A    between atoms: _18  and  _19
REMARK   12  A    between atoms: _24  and  _25
REMARK   13  A    between atoms: _30  and  _32
REMARK   14  A    between atoms: _32  and  _33
REMARK   15  A    between atoms: _32  and  _35
REMARK   16  A    between atoms: _35  and  _36
REMARK   17  A    between atoms: _39  and  _41
REMARK   18  A    between atoms: _41  and  _42
REMARK   19  A    between atoms: _44  and  _46
REMARK   20  A    between atoms: _46  and  _47
REMARK   21  A    between atoms: _46  and  _49
REMARK   22  A    between atoms: _49  and  _50
REMARK   23  A    between atoms: _50  and  _51
REMARK   24  A    between atoms: _51  and  _52
REMARK   25  A    between atoms: _61  and  _63
REMARK   26  A    between atoms: _63  and  _64
REMARK   27  A    between atoms: _63  and  _66
REMARK   28  A    between atoms: _66  and  _67
REMARK   29  A    between atoms: _67  and  _68
REMARK   30  A    between atoms: _73  and  _75
REMARK   31  A    between atoms: _75  and  _76
REMARK   32  A    between atoms: _75  and  _78
REMARK   33  A    between atoms: _81  and  _83
REMARK   34  A    between atoms: _83  and  _84
REMARK   35  A    between atoms: _83  and  _86
REMARK   36  A    between atoms: _86  and  _87
REMARK   37  A    between atoms: _90  and  _92
REMARK   38  A    between atoms: _92  and  _93
REMARK   39  A    between atoms: _92  and  _95
REMARK   40  A    between atoms: _95  and  _96
REMARK   41  A    between atoms: _96  and  _97
REMARK   42  A    between atoms: _100  and  _102
REMARK   43  A    between atoms: _102  and  _103
REMARK   44  A    between atoms: _102  and  _105
REMARK   45  A    between atoms: _105  and  _106
REMARK   46  A    between atoms: _109  and  _111
REMARK   47  A    between atoms: _111  and  _112
REMARK   48  A    between atoms: _111  and  _114
REMARK   49  A    between atoms: _117  and  _119
REMARK   50  A    between atoms: _119  and  _120
REMARK   51  A    between atoms: _123  and  _125
REMARK   52  A    between atoms: _125  and  _126
REMARK   53  A    between atoms: _125  and  _128
REMARK   54  A    between atoms: _131  and  _133
REMARK   55  A    between atoms: _133  and  _134
REMARK   56  A    between atoms: _133  and  _136
REMARK   57  A    between atoms: _136  and  _137
REMARK   58  A    between atoms: _137  and  _138
REMARK   59  A    between atoms: _138  and  _139
REMARK   60  A    between atoms: _139  and  _140
REMARK   61  A    between atoms: _144  and  _146
REMARK   62  A    between atoms: _146  and  _147
REMARK   63  A    between atoms: _146  and  _149
REMARK   64  A    between atoms: _149  and  _150
REMARK   65  A    between atoms: _150  and  _151
REMARK   66  A    between atoms: _153  and  _155
REMARK   67  A    between atoms: _155  and  _156
REMARK   68  A    between atoms: _155  and  _158
REMARK   69  A    between atoms: _158  and  _159
REMARK   70  A    between atoms: _162  and  _164
REMARK   71  A    between atoms: _164  and  _165
REMARK   72  A    between atoms: _164  and  _167
REMARK   73  A    between atoms: _167  and  _168
REMARK   74  A    between atoms: _170  and  _172
REMARK   75  A    between atoms: _172  and  _173
REMARK   76  A    between atoms: _172  and  _175
REMARK   77  A    between atoms: _175  and  _176
REMARK   78  A    between atoms: _176  and  _177
REMARK   79  A    between atoms: _180  and  _182
REMARK   80  A    between atoms: _182  and  _183
REMARK   81  A    between atoms: _182  and  _185
REMARK   82  A    between atoms: _185  and  _186
REMARK   83  A    between atoms: _189  and  _191
REMARK   84  A    between atoms: _191  and  _192
REMARK   85  A    between atoms: _191  and  _194
REMARK   86  A    between atoms: _194  and  _195
REMARK   87  A    between atoms: _198  and  _200
REMARK   88  A    between atoms: _200  and  _201
REMARK   89  A    between atoms: _200  and  _203
REMARK   90  A    between atoms: _203  and  _204
REMARK   91  A    between atoms: _207  and  _209
REMARK   92  A    between atoms: _209  and  _210
REMARK   93  A    between atoms: _209  and  _212
REMARK   94  A    between atoms: _212  and  _213
REMARK   95  A    between atoms: _216  and  _218
REMARK   96  A    between atoms: _218  and  _219
REMARK   97  A    between atoms: _218  and  _221
REMARK   98  A    between atoms: _221  and  _222
REMARK   99  A    between atoms: _225  and  _227
REMARK  100  A    between atoms: _227  and  _228
REMARK  101  A    between atoms: _227  and  _230
REMARK  102  A    between atoms: _233  and  _235
REMARK  103  A    between atoms: _235  and  _236
REMARK  104  A    between atoms: _235  and  _238
REMARK  105  A    between atoms: _241  and  _243
REMARK  106  A    between atoms: _243  and  _244
REMARK  107  A    between atoms: _243  and  _246
REMARK  108  A    between atoms: _246  and  _247
REMARK  109  A    between atoms: _252  and  _254
REMARK  110  A    between atoms: _254  and  _255
REMARK  111  A    between atoms: _254  and  _257
REMARK  112  A    between atoms: _257  and  _258
REMARK  113  A    between atoms: _261  and  _263
REMARK  114  A    between atoms: _263  and  _264
REMARK  115  A    between atoms: _263  and  _266
REMARK  116  A    between atoms: _266  and  _267
REMARK  117  A    between atoms: _270  and  _272
REMARK  118  A    between atoms: _272  and  _273
REMARK  119  A    between atoms: _275  and  _277
REMARK  120  A    between atoms: _277  and  _278
REMARK  121  A    between atoms: _277  and  _280
REMARK  122  A    between atoms: _280  and  _281
REMARK  123  A    between atoms: _281  and  _282
REMARK  124  A    between atoms: _284  and  _286
REMARK  125  A    between atoms: _286  and  _287
REMARK  126  A    between atoms: _286  and  _289
REMARK  127  A    between atoms: _292  and  _294
REMARK  128  A    between atoms: _294  and  _295
REMARK  129  A    between atoms: _294  and  _297
REMARK  130  A    between atoms: _297  and  _298
REMARK  131  A    between atoms: _301  and  _303
REMARK  132  A    between atoms: _303  and  _304
REMARK  133  A    between atoms: _303  and  _306
REMARK  134  A    between atoms: _309  and  _311
REMARK  135  A    between atoms: _311  and  _312
REMARK  136  A    between atoms: _311  and  _314
REMARK  137  A    between atoms: _314  and  _315
REMARK  138  A    between atoms: _315  and  _316
REMARK  139  A    between atoms: _319  and  _321
REMARK  140  A    between atoms: _321  and  _322
REMARK  141  A    between atoms: _321  and  _324
REMARK  142  A    between atoms: _324  and  _325
REMARK  143  A    between atoms: _331  and  _333
REMARK  144  A    between atoms: _333  and  _334
REMARK  145  A    between atoms: _333  and  _336
REMARK  146  A    between atoms: _338  and  _340
REMARK  147  A    between atoms: _340  and  _341
REMARK  148  A    between atoms: _340  and  _343
REMARK  149  A    between atoms: _343  and  _344
REMARK  150  A    between atoms: _344  and  _345
REMARK  151  A    between atoms: _345  and  _346
REMARK  152  A    between atoms: _346  and  _347
REMARK  153  A    between atoms: _351  and  _353
REMARK  154  A    between atoms: _353  and  _354
REMARK  155  A    between atoms: _353  and  _356
REMARK  156  A    between atoms: _356  and  _357
REMARK  157  A    between atoms: _363  and  _365
REMARK  158  A    between atoms: _365  and  _366
REMARK  159  A    between atoms: _368  and  _370
REMARK  160  A    between atoms: _370  and  _371
REMARK  161  A    between atoms: _370  and  _373
REMARK  162  A    between atoms: _373  and  _374
REMARK  163  A    between atoms: _379  and  _381
REMARK  164  A    between atoms: _381  and  _382
REMARK  165  A    between atoms: _384  and  _386
REMARK  166  A    between atoms: _386  and  _387
REMARK  167  A    between atoms: _386  and  _389
REMARK  168  A    between atoms: _389  and  _390
REMARK  169  A    between atoms: _390  and  _391
REMARK  170  A    between atoms: _393  and  _395
REMARK  171  A    between atoms: _395  and  _396
REMARK  172  A    between atoms: _395  and  _398
REMARK  173  A    between atoms: _398  and  _399
REMARK  174  A    between atoms: _402  and  _404
REMARK  175  A    between atoms: _404  and  _405
REMARK  176  A    between atoms: _404  and  _407
REMARK  177  A    between atoms: _409  and  _411
REMARK  178  A    between atoms: _411  and  _412
REMARK  179  A    between atoms: _411  and  _414
REMARK  180  A    between atoms: _414  and  _415
REMARK  181  A    between atoms: _418  and  _420
REMARK  182  A    between atoms: _420  and  _421
REMARK  183  A    between atoms: _420  and  _423
REMARK  184  A    between atoms: _423  and  _424
REMARK  185  A    between atoms: _429  and  _431
REMARK  186  A    between atoms: _431  and  _432
REMARK  187  A    between atoms: _431  and  _434
REMARK  188  A    between atoms: _434  and  _435
REMARK  189  A    between atoms: _435  and  _436
REMARK  190  A    between atoms: _436  and  _437
REMARK  191  A    between atoms: _446  and  _448
REMARK  192  A    between atoms: _448  and  _449
REMARK  193  A    between atoms: _448  and  _451
REMARK  194  A    between atoms: _451  and  _452
REMARK  195  A    between atoms: _452  and  _453
REMARK  196  A    between atoms: _453  and  _454
REMARK  197  A    between atoms: _463  and  _465
REMARK  198  A    between atoms: _465  and  _466
REMARK  199  A    between atoms: _465  and  _468
REMARK  200  A    between atoms: _468  and  _469
REMARK  201  A    between atoms: _474  and  _476
REMARK  202  A    between atoms: _476  and  _477
REMARK  203  A    between atoms: _476  and  _479
REMARK  204  A    between atoms: _479  and  _480
REMARK  205  A    between atoms: _483  and  _485
REMARK  206  A    between atoms: _485  and  _486
REMARK  207  A    between atoms: _485  and  _488
REMARK  208  A    between atoms: _488  and  _489
REMARK  209  A    between atoms: _492  and  _494
REMARK  210  A    between atoms: _494  and  _495
REMARK  211  A    between atoms: _494  and  _497
REMARK  212  A    between atoms: _497  and  _498
REMARK  213  A    between atoms: _500  and  _502
REMARK  214  A    between atoms: _502  and  _503
REMARK  215  A    between atoms: _502  and  _505
REMARK  216  A    between atoms: _505  and  _506
REMARK  217  A    between atoms: _506  and  _507
REMARK  218  A    between atoms: _507  and  _508
REMARK  219  A    between atoms: _508  and  _509
REMARK  220  A    between atoms: _513  and  _515
REMARK  221  A    between atoms: _515  and  _516
REMARK  222  A    between atoms: _515  and  _518
REMARK  223  A    between atoms: _518  and  _519
REMARK  224  A    between atoms: _522  and  _524
REMARK  225  A    between atoms: _524  and  _525
REMARK  226  A    between atoms: _524  and  _527
REMARK  227  A    between atoms: _529  and  _531
REMARK  228  A    between atoms: _531  and  _532
REMARK  229  A    between atoms: _531  and  _534
REMARK  230  A    between atoms: _534  and  _535
REMARK  231  A    between atoms: _538  and  _540
REMARK  232  A    between atoms: _540  and  _541
REMARK  233  A    between atoms: _540  and  _543
REMARK  234  A    between atoms: _543  and  _544
REMARK  235  A    between atoms: _550  and  _552
REMARK  236  A    between atoms: _552  and  _553
REMARK  237  A    between atoms: _555  and  _557
REMARK  238  A    between atoms: _557  and  _558
REMARK  239  A    between atoms: _557  and  _560
REMARK  240  A    between atoms: _560  and  _561
REMARK  241  A    between atoms: _564  and  _566
REMARK  242  A    between atoms: _566  and  _567
REMARK  243  A    between atoms: _570  and  _572
REMARK  244  A    between atoms: _572  and  _573
REMARK  245  A    between atoms: _572  and  _575
REMARK  246  A    between atoms: _575  and  _576
REMARK  247  A    between atoms: _576  and  _577
REMARK  248  A    between atoms: _577  and  _578
REMARK                            x       y       z     vdW  Elec       q    Type
REMARK                         _______ _______ _______ _____ _____    ______ ____
ROOT
ATOM      1  O   HOH     1     -11.702   4.400 -10.906  0.00  0.00    +0.000 OA
ENDROOT
TORSDOF 0
REMARK  Name = ../refined-set-2016/4ase/4ase_pocket.pdb
REMARK  248 active torsions:
REMARK  status: ('A' for Active; 'I' for Inactive)
REMARK    1  A    between atoms: _1  and  _3
REMARK    2  A    between atoms: _3  and  _4
REMARK    3  A    between atoms: _3  and  _6
REMARK    4  A    between atoms: _6  and  _7
REMARK    5  A    between atoms: _10  and  _12
REMARK    6  A    between atoms: _12  and  _13
REMARK    7  A    between atoms: _12  and  _15
REMARK    8  A    between atoms: _15  and  _16
REMARK    9  A    between atoms: _16  and  _17
REMARK   10  A    between atoms: _17  and  _18
REMARK   11  A    between atoms: _18  and  _19
REMARK   12  A    between atoms: _24  and  _25
REMARK   13  A    between atoms: _30  and  _32
REMARK   14  A    between atoms: _32  and  _33
REMARK   15  A    between atoms: _32  and  _35
REMARK   16  A    between atoms: _35  and  _36
REMARK   17  A    between atoms: _39  and  _41
REMARK   18  A    between atoms: _41  and  _42
REMARK   19  A    between atoms: _44  and  _46
REMARK   20  A    between atoms: _46  and  _47
REMARK   21  A    between atoms: _46  and  _49
REMARK   22  A    between atoms: _49  and  _50
REMARK   23  A    between atoms: _50  and  _51
REMARK   24  A    between atoms: _51  and  _52
REMARK   25  A    between atoms: _61  and  _63
REMARK   26  A    between atoms: _63  and  _64
REMARK   27  A    between atoms: _63  and  _66
REMARK   28  A    between atoms: _66  and  _67
REMARK   29  A    between atoms: _67  and  _68
REMARK   30  A    between atoms: _73  and  _75
REMARK   31  A    between atoms: _75  and  _76
REMARK   32  A    between atoms: _75  and  _78
REMARK   33  A    between atoms: _81  and  _83
REMARK   34  A    between atoms: _83  and  _84
REMARK   35  A    between atoms: _83  and  _86
REMARK   36  A    between atoms: _86  and  _87
REMARK   37  A    between atoms: _90  and  _92
REMARK   38  A    between atoms: _92  and  _93
REMARK   39  A    between atoms: _92  and  _95
REMARK   40  A    between atoms: _95  and  _96
REMARK   41  A    between atoms: _96  and  _97
REMARK   42  A    between atoms: _100  and  _102
REMARK   43  A    between atoms: _102  and  _103
REMARK   44  A    between atoms: _102  and  _105
REMARK   45  A    between atoms: _105  and  _106
REMARK   46  A    between atoms: _109  and  _111
REMARK   47  A    between atoms: _111  and  _112
REMARK   48  A    between atoms: _111  and  _114
REMARK   49  A    between atoms: _117  and  _119
REMARK   50  A    between atoms: _119  and  _120
REMARK   51  A    between atoms: _123  and  _125
REMARK   52  A    between atoms: _125  and  _126
REMARK   53  A    between atoms: _125  and  _128
REMARK   54  A    between atoms: _131  and  _133
REMARK   55  A    between atoms: _133  and  _134
REMARK   56  A    between atoms: _133  and  _136
REMARK   57  A    between atoms: _136  and  _137
REMARK   58  A    between atoms: _137  and  _138
REMARK   59  A    between atoms: _138  and  _139
REMARK   60  A    between atoms: _139  and  _140
REMARK   61  A    between atoms: _144  and  _146
REMARK   62  A    between atoms: _146  and  _147
REMARK   63  A    between atoms: _146  and  _149
REMARK   64  A    between atoms: _149  and  _150
REMARK   65  A    between atoms: _150  and  _151
REMARK   66  A    between atoms: _153  and  _155
REMARK   67  A    between atoms: _155  and  _156
REMARK   68  A    between atoms: _155  and  _158
REMARK   69  A    between atoms: _158  and  _159
REMARK   70  A    between atoms: _162  and  _164
REMARK   71  A    between atoms: _164  and  _165
REMARK   72  A    between atoms: _164  and  _167
REMARK   73  A    between atoms: _167  and  _168
REMARK   74  A    between atoms: _170  and  _172
REMARK   75  A    between atoms: _172  and  _173
REMARK   76  A    between atoms: _172  and  _175
REMARK   77  A    between atoms: _175  and  _176
REMARK   78  A    between atoms: _176  and  _177
REMARK   79  A    between atoms: _180  and  _182
REMARK   80  A    between atoms: _182  and  _183
REMARK   81  A    between atoms: _182  and  _185
REMARK   82  A    between atoms: _185  and  _186
REMARK   83  A    between atoms: _189  and  _191
REMARK   84  A    between atoms: _191  and  _192
REMARK   85  A    between atoms: _191  and  _194
REMARK   86  A    between atoms: _194  and  _195
REMARK   87  A    between atoms: _198  and  _200
REMARK   88  A    between atoms: _200  and  _201
REMARK   89  A    between atoms: _200  and  _203
REMARK   90  A    between atoms: _203  and  _204
REMARK   91  A    between atoms: _207  and  _209
REMARK   92  A    between atoms: _209  and  _210
REMARK   93  A    between atoms: _209  and  _212
REMARK   94  A    between atoms: _212  and  _213
REMARK   95  A    between atoms: _216  and  _218
REMARK   96  A    between atoms: _218  and  _219
REMARK   97  A    between atoms: _218  and  _221
REMARK   98  A    between atoms: _221  and  _222
REMARK   99  A    between atoms: _225  and  _227
REMARK  100  A    between atoms: _227  and  _228
REMARK  101  A    between atoms: _227  and  _230
REMARK  102  A    between atoms: _233  and  _235
REMARK  103  A    between atoms: _235  and  _236
REMARK  104  A    between atoms: _235  and  _238
REMARK  105  A    between atoms: _241  and  _243
REMARK  106  A    between atoms: _243  and  _244
REMARK  107  A    between atoms: _243  and  _246
REMARK  108  A    between atoms: _246  and  _247
REMARK  109  A    between atoms: _252  and  _254
REMARK  110  A    between atoms: _254  and  _255
REMARK  111  A    between atoms: _254  and  _257
REMARK  112  A    between atoms: _257  and  _258
REMARK  113  A    between atoms: _261  and  _263
REMARK  114  A    between atoms: _263  and  _264
REMARK  115  A    between atoms: _263  and  _266
REMARK  116  A    between atoms: _266  and  _267
REMARK  117  A    between atoms: _270  and  _272
REMARK  118  A    between atoms: _272  and  _273
REMARK  119  A    between atoms: _275  and  _277
REMARK  120  A    between atoms: _277  and  _278
REMARK  121  A    between atoms: _277  and  _280
REMARK  122  A    between atoms: _280  and  _281
REMARK  123  A    between atoms: _281  and  _282
REMARK  124  A    between atoms: _284  and  _286
REMARK  125  A    between atoms: _286  and  _287
REMARK  126  A    between atoms: _286  and  _289
REMARK  127  A    between atoms: _292  and  _294
REMARK  128  A    between atoms: _294  and  _295
REMARK  129  A    between atoms: _294  and  _297
REMARK  130  A    between atoms: _297  and  _298
REMARK  131  A    between atoms: _301  and  _303
REMARK  132  A    between atoms: _303  and  _304
REMARK  133  A    between atoms: _303  and  _306
REMARK  134  A    between atoms: _309  and  _311
REMARK  135  A    between atoms: _311  and  _312
REMARK  136  A    between atoms: _311  and  _314
REMARK  137  A    between atoms: _314  and  _315
REMARK  138  A    between atoms: _315  and  _316
REMARK  139  A    between atoms: _319  and  _321
REMARK  140  A    between atoms: _321  and  _322
REMARK  141  A    between atoms: _321  and  _324
REMARK  142  A    between atoms: _324  and  _325
REMARK  143  A    between atoms: _331  and  _333
REMARK  144  A    between atoms: _333  and  _334
REMARK  145  A    between atoms: _333  and  _336
REMARK  146  A    between atoms: _338  and  _340
REMARK  147  A    between atoms: _340  and  _341
REMARK  148  A    between atoms: _340  and  _343
REMARK  149  A    between atoms: _343  and  _344
REMARK  150  A    between atoms: _344  and  _345
REMARK  151  A    between atoms: _345  and  _346
REMARK  152  A    between atoms: _346  and  _347
REMARK  153  A    between atoms: _351  and  _353
REMARK  154  A    between atoms: _353  and  _354
REMARK  155  A    between atoms: _353  and  _356
REMARK  156  A    between atoms: _356  and  _357
REMARK  157  A    between atoms: _363  and  _365
REMARK  158  A    between atoms: _365  and  _366
REMARK  159  A    between atoms: _368  and  _370
REMARK  160  A    between atoms: _370  and  _371
REMARK  161  A    between atoms: _370  and  _373
REMARK  162  A    between atoms: _373  and  _374
REMARK  163  A    between atoms: _379  and  _381
REMARK  164  A    between atoms: _381  and  _382
REMARK  165  A    between atoms: _384  and  _386
REMARK  166  A    between atoms: _386  and  _387
REMARK  167  A    between atoms: _386  and  _389
REMARK  168  A    between atoms: _389  and  _390
REMARK  169  A    between atoms: _390  and  _391
REMARK  170  A    between atoms: _393  and  _395
REMARK  171  A    between atoms: _395  and  _396
REMARK  172  A    between atoms: _395  and  _398
REMARK  173  A    between atoms: _398  and  _399
REMARK  174  A    between atoms: _402  and  _404
REMARK  175  A    between atoms: _404  and  _405
REMARK  176  A    between atoms: _404  and  _407
REMARK  177  A    between atoms: _409  and  _411
REMARK  178  A    between atoms: _411  and  _412
REMARK  179  A    between atoms: _411  and  _414
REMARK  180  A    between atoms: _414  and  _415
REMARK  181  A    between atoms: _418  and  _420
REMARK  182  A    between atoms: _420  and  _421
REMARK  183  A    between atoms: _420  and  _423
REMARK  184  A    between atoms: _423  and  _424
REMARK  185  A    between atoms: _429  and  _431
REMARK  186  A    between atoms: _431  and  _432
REMARK  187  A    between atoms: _431  and  _434
REMARK  188  A    between atoms: _434  and  _435
REMARK  189  A    between atoms: _435  and  _436
REMARK  190  A    between atoms: _436  and  _437
REMARK  191  A    between atoms: _446  and  _448
REMARK  192  A    between atoms: _448  and  _449
REMARK  193  A    between atoms: _448  and  _451
REMARK  194  A    between atoms: _451  and  _452
REMARK  195  A    between atoms: _452  and  _453
REMARK  196  A    between atoms: _453  and  _454
REMARK  197  A    between atoms: _463  and  _465
REMARK  198  A    between atoms: _465  and  _466
REMARK  199  A    between atoms: _465  and  _468
REMARK  200  A    between atoms: _468  and  _469
REMARK  201  A    between atoms: _474  and  _476
REMARK  202  A    between atoms: _476  and  _477
REMARK  203  A    between atoms: _476  and  _479
REMARK  204  A    between atoms: _479  and  _480
REMARK  205  A    between atoms: _483  and  _485
REMARK  206  A    between atoms: _485  and  _486
REMARK  207  A    between atoms: _485  and  _488
REMARK  208  A    between atoms: _488  and  _489
REMARK  209  A    between atoms: _492  and  _494
REMARK  210  A    between atoms: _494  and  _495
REMARK  211  A    between atoms: _494  and  _497
REMARK  212  A    between atoms: _497  and  _498
REMARK  213  A    between atoms: _500  and  _502
REMARK  214  A    between atoms: _502  and  _503
REMARK  215  A    between atoms: _502  and  _505
REMARK  216  A    between atoms: _505  and  _506
REMARK  217  A    between atoms: _506  and  _507
REMARK  218  A    between atoms: _507  and  _508
REMARK  219  A    between atoms: _508  and  _509
REMARK  220  A    between atoms: _513  and  _515
REMARK  221  A    between atoms: _515  and  _516
REMARK  222  A    between atoms: _515  and  _518
REMARK  223  A    between atoms: _518  and  _519
REMARK  224  A    between atoms: _522  and  _524
REMARK  225  A    between atoms: _524  and  _525
REMARK  226  A    between atoms: _524  and  _527
REMARK  227  A    between atoms: _529  and  _531
REMARK  228  A    between atoms: _531  and  _532
REMARK  229  A    between atoms: _531  and  _534
REMARK  230  A    between atoms: _534  and  _535
REMARK  231  A    between atoms: _538  and  _540
REMARK  232  A    between atoms: _540  and  _541
REMARK  233  A    between atoms: _540  and  _543
REMARK  234  A    between atoms: _543  and  _544
REMARK  235  A    between atoms: _550  and  _552
REMARK  236  A    between atoms: _552  and  _553
REMARK  237  A    between atoms: _555  and  _557
REMARK  238  A    between atoms: _557  and  _558
REMARK  239  A    between atoms: _557  and  _560
REMARK  240  A    between atoms: _560  and  _561
REMARK  241  A    between atoms: _564  and  _566
REMARK  242  A    between atoms: _566  and  _567
REMARK  243  A    between atoms: _570  and  _572
REMARK  244  A    between atoms: _572  and  _573
REMARK  245  A    between atoms: _572  and  _575
REMARK  246  A    between atoms: _575  and  _576
REMARK  247  A    between atoms: _576  and  _577
REMARK  248  A    between atoms: _577  and  _578
REMARK                            x       y       z     vdW  Elec       q    Type
REMARK                         _______ _______ _______ _____ _____    ______ ____
ROOT
ATOM      1  O   HOH     1     -10.614   7.591 -12.467  0.00  0.00    +0.000 OA
ENDROOT
TORSDOF 0
REMARK  Name = ../refined-set-2016/4ase/4ase_pocket.pdb
REMARK  248 active torsions:
REMARK  status: ('A' for Active; 'I' for Inactive)
REMARK    1  A    between atoms: _1  and  _3
REMARK    2  A    between atoms: _3  and  _4
REMARK    3  A    between atoms: _3  and  _6
REMARK    4  A    between atoms: _6  and  _7
REMARK    5  A    between atoms: _10  and  _12
REMARK    6  A    between atoms: _12  and  _13
REMARK    7  A    between atoms: _12  and  _15
REMARK    8  A    between atoms: _15  and  _16
REMARK    9  A    between atoms: _16  and  _17
REMARK   10  A    between atoms: _17  and  _18
REMARK   11  A    between atoms: _18  and  _19
REMARK   12  A    between atoms: _24  and  _25
REMARK   13  A    between atoms: _30  and  _32
REMARK   14  A    between atoms: _32  and  _33
REMARK   15  A    between atoms: _32  and  _35
REMARK   16  A    between atoms: _35  and  _36
REMARK   17  A    between atoms: _39  and  _41
REMARK   18  A    between atoms: _41  and  _42
REMARK   19  A    between atoms: _44  and  _46
REMARK   20  A    between atoms: _46  and  _47
REMARK   21  A    between atoms: _46  and  _49
REMARK   22  A    between atoms: _49  and  _50
REMARK   23  A    between atoms: _50  and  _51
REMARK   24  A    between atoms: _51  and  _52
REMARK   25  A    between atoms: _61  and  _63
REMARK   26  A    between atoms: _63  and  _64
REMARK   27  A    between atoms: _63  and  _66
REMARK   28  A    between atoms: _66  and  _67
REMARK   29  A    between atoms: _67  and  _68
REMARK   30  A    between atoms: _73  and  _75
REMARK   31  A    between atoms: _75  and  _76
REMARK   32  A    between atoms: _75  and  _78
REMARK   33  A    between atoms: _81  and  _83
REMARK   34  A    between atoms: _83  and  _84
REMARK   35  A    between atoms: _83  and  _86
REMARK   36  A    between atoms: _86  and  _87
REMARK   37  A    between atoms: _90  and  _92
REMARK   38  A    between atoms: _92  and  _93
REMARK   39  A    between atoms: _92  and  _95
REMARK   40  A    between atoms: _95  and  _96
REMARK   41  A    between atoms: _96  and  _97
REMARK   42  A    between atoms: _100  and  _102
REMARK   43  A    between atoms: _102  and  _103
REMARK   44  A    between atoms: _102  and  _105
REMARK   45  A    between atoms: _105  and  _106
REMARK   46  A    between atoms: _109  and  _111
REMARK   47  A    between atoms: _111  and  _112
REMARK   48  A    between atoms: _111  and  _114
REMARK   49  A    between atoms: _117  and  _119
REMARK   50  A    between atoms: _119  and  _120
REMARK   51  A    between atoms: _123  and  _125
REMARK   52  A    between atoms: _125  and  _126
REMARK   53  A    between atoms: _125  and  _128
REMARK   54  A    between atoms: _131  and  _133
REMARK   55  A    between atoms: _133  and  _134
REMARK   56  A    between atoms: _133  and  _136
REMARK   57  A    between atoms: _136  and  _137
REMARK   58  A    between atoms: _137  and  _138
REMARK   59  A    between atoms: _138  and  _139
REMARK   60  A    between atoms: _139  and  _140
REMARK   61  A    between atoms: _144  and  _146
REMARK   62  A    between atoms: _146  and  _147
REMARK   63  A    between atoms: _146  and  _149
REMARK   64  A    between atoms: _149  and  _150
REMARK   65  A    between atoms: _150  and  _151
REMARK   66  A    between atoms: _153  and  _155
REMARK   67  A    between atoms: _155  and  _156
REMARK   68  A    between atoms: _155  and  _158
REMARK   69  A    between atoms: _158  and  _159
REMARK   70  A    between atoms: _162  and  _164
REMARK   71  A    between atoms: _164  and  _165
REMARK   72  A    between atoms: _164  and  _167
REMARK   73  A    between atoms: _167  and  _168
REMARK   74  A    between atoms: _170  and  _172
REMARK   75  A    between atoms: _172  and  _173
REMARK   76  A    between atoms: _172  and  _175
REMARK   77  A    between atoms: _175  and  _176
REMARK   78  A    between atoms: _176  and  _177
REMARK   79  A    between atoms: _180  and  _182
REMARK   80  A    between atoms: _182  and  _183
REMARK   81  A    between atoms: _182  and  _185
REMARK   82  A    between atoms: _185  and  _186
REMARK   83  A    between atoms: _189  and  _191
REMARK   84  A    between atoms: _191  and  _192
REMARK   85  A    between atoms: _191  and  _194
REMARK   86  A    between atoms: _194  and  _195
REMARK   87  A    between atoms: _198  and  _200
REMARK   88  A    between atoms: _200  and  _201
REMARK   89  A    between atoms: _200  and  _203
REMARK   90  A    between atoms: _203  and  _204
REMARK   91  A    between atoms: _207  and  _209
REMARK   92  A    between atoms: _209  and  _210
REMARK   93  A    between atoms: _209  and  _212
REMARK   94  A    between atoms: _212  and  _213
REMARK   95  A    between atoms: _216  and  _218
REMARK   96  A    between atoms: _218  and  _219
REMARK   97  A    between atoms: _218  and  _221
REMARK   98  A    between atoms: _221  and  _222
REMARK   99  A    between atoms: _225  and  _227
REMARK  100  A    between atoms: _227  and  _228
REMARK  101  A    between atoms: _227  and  _230
REMARK  102  A    between atoms: _233  and  _235
REMARK  103  A    between atoms: _235  and  _236
REMARK  104  A    between atoms: _235  and  _238
REMARK  105  A    between atoms: _241  and  _243
REMARK  106  A    between atoms: _243  and  _244
REMARK  107  A    between atoms: _243  and  _246
REMARK  108  A    between atoms: _246  and  _247
REMARK  109  A    between atoms: _252  and  _254
REMARK  110  A    between atoms: _254  and  _255
REMARK  111  A    between atoms: _254  and  _257
REMARK  112  A    between atoms: _257  and  _258
REMARK  113  A    between atoms: _261  and  _263
REMARK  114  A    between atoms: _263  and  _264
REMARK  115  A    between atoms: _263  and  _266
REMARK  116  A    between atoms: _266  and  _267
REMARK  117  A    between atoms: _270  and  _272
REMARK  118  A    between atoms: _272  and  _273
REMARK  119  A    between atoms: _275  and  _277
REMARK  120  A    between atoms: _277  and  _278
REMARK  121  A    between atoms: _277  and  _280
REMARK  122  A    between atoms: _280  and  _281
REMARK  123  A    between atoms: _281  and  _282
REMARK  124  A    between atoms: _284  and  _286
REMARK  125  A    between atoms: _286  and  _287
REMARK  126  A    between atoms: _286  and  _289
REMARK  127  A    between atoms: _292  and  _294
REMARK  128  A    between atoms: _294  and  _295
REMARK  129  A    between atoms: _294  and  _297
REMARK  130  A    between atoms: _297  and  _298
REMARK  131  A    between atoms: _301  and  _303
REMARK  132  A    between atoms: _303  and  _304
REMARK  133  A    between atoms: _303  and  _306
REMARK  134  A    between atoms: _309  and  _311
REMARK  135  A    between atoms: _311  and  _312
REMARK  136  A    between atoms: _311  and  _314
REMARK  137  A    between atoms: _314  and  _315
REMARK  138  A    between atoms: _315  and  _316
REMARK  139  A    between atoms: _319  and  _321
REMARK  140  A    between atoms: _321  and  _322
REMARK  141  A    between atoms: _321  and  _324
REMARK  142  A    between atoms: _324  and  _325
REMARK  143  A    between atoms: _331  and  _333
REMARK  144  A    between atoms: _333  and  _334
REMARK  145  A    between atoms: _333  and  _336
REMARK  146  A    between atoms: _338  and  _340
REMARK  147  A    between atoms: _340  and  _341
REMARK  148  A    between atoms: _340  and  _343
REMARK  149  A    between atoms: _343  and  _344
REMARK  150  A    between atoms: _344  and  _345
REMARK  151  A    between atoms: _345  and  _346
REMARK  152  A    between atoms: _346  and  _347
REMARK  153  A    between atoms: _351  and  _353
REMARK  154  A    between atoms: _353  and  _354
REMARK  155  A    between atoms: _353  and  _356
REMARK  156  A    between atoms: _356  and  _357
REMARK  157  A    between atoms: _363  and  _365
REMARK  158  A    between atoms: _365  and  _366
REMARK  159  A    between atoms: _368  and  _370
REMARK  160  A    between atoms: _370  and  _371
REMARK  161  A    between atoms: _370  and  _373
REMARK  162  A    between atoms: _373  and  _374
REMARK  163  A    between atoms: _379  and  _381
REMARK  164  A    between atoms: _381  and  _382
REMARK  165  A    between atoms: _384  and  _386
REMARK  166  A    between atoms: _386  and  _387
REMARK  167  A    between atoms: _386  and  _389
REMARK  168  A    between atoms: _389  and  _390
REMARK  169  A    between atoms: _390  and  _391
REMARK  170  A    between atoms: _393  and  _395
REMARK  171  A    between atoms: _395  and  _396
REMARK  172  A    between atoms: _395  and  _398
REMARK  173  A    between atoms: _398  and  _399
REMARK  174  A    between atoms: _402  and  _404
REMARK  175  A    between atoms: _404  and  _405
REMARK  176  A    between atoms: _404  and  _407
REMARK  177  A    between atoms: _409  and  _411
REMARK  178  A    between atoms: _411  and  _412
REMARK  179  A    between atoms: _411  and  _414
REMARK  180  A    between atoms: _414  and  _415
REMARK  181  A    between atoms: _418  and  _420
REMARK  182  A    between atoms: _420  and  _421
REMARK  183  A    between atoms: _420  and  _423
REMARK  184  A    between atoms: _423  and  _424
REMARK  185  A    between atoms: _429  and  _431
REMARK  186  A    between atoms: _431  and  _432
REMARK  187  A    between atoms: _431  and  _434
REMARK  188  A    between atoms: _434  and  _435
REMARK  189  A    between atoms: _435  and  _436
REMARK  190  A    between atoms: _436  and  _437
REMARK  191  A    between atoms: _446  and  _448
REMARK  192  A    between atoms: _448  and  _449
REMARK  193  A    between atoms: _448  and  _451
REMARK  194  A    between atoms: _451  and  _452
REMARK  195  A    between atoms: _452  and  _453
REMARK  196  A    between atoms: _453  and  _454
REMARK  197  A    between atoms: _463  and  _465
REMARK  198  A    between atoms: _465  and  _466
REMARK  199  A    between atoms: _465  and  _468
REMARK  200  A    between atoms: _468  and  _469
REMARK  201  A    between atoms: _474  and  _476
REMARK  202  A    between atoms: _476  and  _477
REMARK  203  A    between atoms: _476  and  _479
REMARK  204  A    between atoms: _479  and  _480
REMARK  205  A    between atoms: _483  and  _485
REMARK  206  A    between atoms: _485  and  _486
REMARK  207  A    between atoms: _485  and  _488
REMARK  208  A    between atoms: _488  and  _489
REMARK  209  A    between atoms: _492  and  _494
REMARK  210  A    between atoms: _494  and  _495
REMARK  211  A    between atoms: _494  and  _497
REMARK  212  A    between atoms: _497  and  _498
REMARK  213  A    between atoms: _500  and  _502
REMARK  214  A    between atoms: _502  and  _503
REMARK  215  A    between atoms: _502  and  _505
REMARK  216  A    between atoms: _505  and  _506
REMARK  217  A    between atoms: _506  and  _507
REMARK  218  A    between atoms: _507  and  _508
REMARK  219  A    between atoms: _508  and  _509
REMARK  220  A    between atoms: _513  and  _515
REMARK  221  A    between atoms: _515  and  _516
REMARK  222  A    between atoms: _515  and  _518
REMARK  223  A    between atoms: _518  and  _519
REMARK  224  A    between atoms: _522  and  _524
REMARK  225  A    between atoms: _524  and  _525
REMARK  226  A    between atoms: _524  and  _527
REMARK  227  A    between atoms: _529  and  _531
REMARK  228  A    between atoms: _531  and  _532
REMARK  229  A    between atoms: _531  and  _534
REMARK  230  A    between atoms: _534  and  _535
REMARK  231  A    between atoms: _538  and  _540
REMARK  232  A    between atoms: _540  and  _541
REMARK  233  A    between atoms: _540  and  _543
REMARK  234  A    between atoms: _543  and  _544
REMARK  235  A    between atoms: _550  and  _552
REMARK  236  A    between atoms: _552  and  _553
REMARK  237  A    between atoms: _555  and  _557
REMARK  238  A    between atoms: _557  and  _558
REMARK  239  A    between atoms: _557  and  _560
REMARK  240  A    between atoms: _560  and  _561
REMARK  241  A    between atoms: _564  and  _566
REMARK  242  A    between atoms: _566  and  _567
REMARK  243  A    between atoms: _570  and  _572
REMARK  244  A    between atoms: _572  and  _573
REMARK  245  A    between atoms: _572  and  _575
REMARK  246  A    between atoms: _575  and  _576
REMARK  247  A    between atoms: _576  and  _577
REMARK  248  A    between atoms: _577  and  _578
REMARK                            x       y       z     vdW  Elec       q    Type
REMARK                         _______ _______ _______ _____ _____    ______ ____
ROOT
ATOM      1  O   HOH     1     -14.114   1.382 -12.546  0.00  0.00    +0.000 OA
ENDROOT
TORSDOF 0
REMARK  Name = ../refined-set-2016/4ase/4ase_pocket.pdb
REMARK  248 active torsions:
REMARK  status: ('A' for Active; 'I' for Inactive)
REMARK    1  A    between atoms: _1  and  _3
REMARK    2  A    between atoms: _3  and  _4
REMARK    3  A    between atoms: _3  and  _6
REMARK    4  A    between atoms: _6  and  _7
REMARK    5  A    between atoms: _10  and  _12
REMARK    6  A    between atoms: _12  and  _13
REMARK    7  A    between atoms: _12  and  _15
REMARK    8  A    between atoms: _15  and  _16
REMARK    9  A    between atoms: _16  and  _17
REMARK   10  A    between atoms: _17  and  _18
REMARK   11  A    between atoms: _18  and  _19
REMARK   12  A    between atoms: _24  and  _25
REMARK   13  A    between atoms: _30  and  _32
REMARK   14  A    between atoms: _32  and  _33
REMARK   15  A    between atoms: _32  and  _35
REMARK   16  A    between atoms: _35  and  _36
REMARK   17  A    between atoms: _39  and  _41
REMARK   18  A    between atoms: _41  and  _42
REMARK   19  A    between atoms: _44  and  _46
REMARK   20  A    between atoms: _46  and  _47
REMARK   21  A    between atoms: _46  and  _49
REMARK   22  A    between atoms: _49  and  _50
REMARK   23  A    between atoms: _50  and  _51
REMARK   24  A    between atoms: _51  and  _52
REMARK   25  A    between atoms: _61  and  _63
REMARK   26  A    between atoms: _63  and  _64
REMARK   27  A    between atoms: _63  and  _66
REMARK   28  A    between atoms: _66  and  _67
REMARK   29  A    between atoms: _67  and  _68
REMARK   30  A    between atoms: _73  and  _75
REMARK   31  A    between atoms: _75  and  _76
REMARK   32  A    between atoms: _75  and  _78
REMARK   33  A    between atoms: _81  and  _83
REMARK   34  A    between atoms: _83  and  _84
REMARK   35  A    between atoms: _83  and  _86
REMARK   36  A    between atoms: _86  and  _87
REMARK   37  A    between atoms: _90  and  _92
REMARK   38  A    between atoms: _92  and  _93
REMARK   39  A    between atoms: _92  and  _95
REMARK   40  A    between atoms: _95  and  _96
REMARK   41  A    between atoms: _96  and  _97
REMARK   42  A    between atoms: _100  and  _102
REMARK   43  A    between atoms: _102  and  _103
REMARK   44  A    between atoms: _102  and  _105
REMARK   45  A    between atoms: _105  and  _106
REMARK   46  A    between atoms: _109  and  _111
REMARK   47  A    between atoms: _111  and  _112
REMARK   48  A    between atoms: _111  and  _114
REMARK   49  A    between atoms: _117  and  _119
REMARK   50  A    between atoms: _119  and  _120
REMARK   51  A    between atoms: _123  and  _125
REMARK   52  A    between atoms: _125  and  _126
REMARK   53  A    between atoms: _125  and  _128
REMARK   54  A    between atoms: _131  and  _133
REMARK   55  A    between atoms: _133  and  _134
REMARK   56  A    between atoms: _133  and  _136
REMARK   57  A    between atoms: _136  and  _137
REMARK   58  A    between atoms: _137  and  _138
REMARK   59  A    between atoms: _138  and  _139
REMARK   60  A    between atoms: _139  and  _140
REMARK   61  A    between atoms: _144  and  _146
REMARK   62  A    between atoms: _146  and  _147
REMARK   63  A    between atoms: _146  and  _149
REMARK   64  A    between atoms: _149  and  _150
REMARK   65  A    between atoms: _150  and  _151
REMARK   66  A    between atoms: _153  and  _155
REMARK   67  A    between atoms: _155  and  _156
REMARK   68  A    between atoms: _155  and  _158
REMARK   69  A    between atoms: _158  and  _159
REMARK   70  A    between atoms: _162  and  _164
REMARK   71  A    between atoms: _164  and  _165
REMARK   72  A    between atoms: _164  and  _167
REMARK   73  A    between atoms: _167  and  _168
REMARK   74  A    between atoms: _170  and  _172
REMARK   75  A    between atoms: _172  and  _173
REMARK   76  A    between atoms: _172  and  _175
REMARK   77  A    between atoms: _175  and  _176
REMARK   78  A    between atoms: _176  and  _177
REMARK   79  A    between atoms: _180  and  _182
REMARK   80  A    between atoms: _182  and  _183
REMARK   81  A    between atoms: _182  and  _185
REMARK   82  A    between atoms: _185  and  _186
REMARK   83  A    between atoms: _189  and  _191
REMARK   84  A    between atoms: _191  and  _192
REMARK   85  A    between atoms: _191  and  _194
REMARK   86  A    between atoms: _194  and  _195
REMARK   87  A    between atoms: _198  and  _200
REMARK   88  A    between atoms: _200  and  _201
REMARK   89  A    between atoms: _200  and  _203
REMARK   90  A    between atoms: _203  and  _204
REMARK   91  A    between atoms: _207  and  _209
REMARK   92  A    between atoms: _209  and  _210
REMARK   93  A    between atoms: _209  and  _212
REMARK   94  A    between atoms: _212  and  _213
REMARK   95  A    between atoms: _216  and  _218
REMARK   96  A    between atoms: _218  and  _219
REMARK   97  A    between atoms: _218  and  _221
REMARK   98  A    between atoms: _221  and  _222
REMARK   99  A    between atoms: _225  and  _227
REMARK  100  A    between atoms: _227  and  _228
REMARK  101  A    between atoms: _227  and  _230
REMARK  102  A    between atoms: _233  and  _235
REMARK  103  A    between atoms: _235  and  _236
REMARK  104  A    between atoms: _235  and  _238
REMARK  105  A    between atoms: _241  and  _243
REMARK  106  A    between atoms: _243  and  _244
REMARK  107  A    between atoms: _243  and  _246
REMARK  108  A    between atoms: _246  and  _247
REMARK  109  A    between atoms: _252  and  _254
REMARK  110  A    between atoms: _254  and  _255
REMARK  111  A    between atoms: _254  and  _257
REMARK  112  A    between atoms: _257  and  _258
REMARK  113  A    between atoms: _261  and  _263
REMARK  114  A    between atoms: _263  and  _264
REMARK  115  A    between atoms: _263  and  _266
REMARK  116  A    between atoms: _266  and  _267
REMARK  117  A    between atoms: _270  and  _272
REMARK  118  A    between atoms: _272  and  _273
REMARK  119  A    between atoms: _275  and  _277
REMARK  120  A    between atoms: _277  and  _278
REMARK  121  A    between atoms: _277  and  _280
REMARK  122  A    between atoms: _280  and  _281
REMARK  123  A    between atoms: _281  and  _282
REMARK  124  A    between atoms: _284  and  _286
REMARK  125  A    between atoms: _286  and  _287
REMARK  126  A    between atoms: _286  and  _289
REMARK  127  A    between atoms: _292  and  _294
REMARK  128  A    between atoms: _294  and  _295
REMARK  129  A    between atoms: _294  and  _297
REMARK  130  A    between atoms: _297  and  _298
REMARK  131  A    between atoms: _301  and  _303
REMARK  132  A    between atoms: _303  and  _304
REMARK  133  A    between atoms: _303  and  _306
REMARK  134  A    between atoms: _309  and  _311
REMARK  135  A    between atoms: _311  and  _312
REMARK  136  A    between atoms: _311  and  _314
REMARK  137  A    between atoms: _314  and  _315
REMARK  138  A    between atoms: _315  and  _316
REMARK  139  A    between atoms: _319  and  _321
REMARK  140  A    between atoms: _321  and  _322
REMARK  141  A    between atoms: _321  and  _324
REMARK  142  A    between atoms: _324  and  _325
REMARK  143  A    between atoms: _331  and  _333
REMARK  144  A    between atoms: _333  and  _334
REMARK  145  A    between atoms: _333  and  _336
REMARK  146  A    between atoms: _338  and  _340
REMARK  147  A    between atoms: _340  and  _341
REMARK  148  A    between atoms: _340  and  _343
REMARK  149  A    between atoms: _343  and  _344
REMARK  150  A    between atoms: _344  and  _345
REMARK  151  A    between atoms: _345  and  _346
REMARK  152  A    between atoms: _346  and  _347
REMARK  153  A    between atoms: _351  and  _353
REMARK  154  A    between atoms: _353  and  _354
REMARK  155  A    between atoms: _353  and  _356
REMARK  156  A    between atoms: _356  and  _357
REMARK  157  A    between atoms: _363  and  _365
REMARK  158  A    between atoms: _365  and  _366
REMARK  159  A    between atoms: _368  and  _370
REMARK  160  A    between atoms: _370  and  _371
REMARK  161  A    between atoms: _370  and  _373
REMARK  162  A    between atoms: _373  and  _374
REMARK  163  A    between atoms: _379  and  _381
REMARK  164  A    between atoms: _381  and  _382
REMARK  165  A    between atoms: _384  and  _386
REMARK  166  A    between atoms: _386  and  _387
REMARK  167  A    between atoms: _386  and  _389
REMARK  168  A    between atoms: _389  and  _390
REMARK  169  A    between atoms: _390  and  _391
REMARK  170  A    between atoms: _393  and  _395
REMARK  171  A    between atoms: _395  and  _396
REMARK  172  A    between atoms: _395  and  _398
REMARK  173  A    between atoms: _398  and  _399
REMARK  174  A    between atoms: _402  and  _404
REMARK  175  A    between atoms: _404  and  _405
REMARK  176  A    between atoms: _404  and  _407
REMARK  177  A    between atoms: _409  and  _411
REMARK  178  A    between atoms: _411  and  _412
REMARK  179  A    between atoms: _411  and  _414
REMARK  180  A    between atoms: _414  and  _415
REMARK  181  A    between atoms: _418  and  _420
REMARK  182  A    between atoms: _420  and  _421
REMARK  183  A    between atoms: _420  and  _423
REMARK  184  A    between atoms: _423  and  _424
REMARK  185  A    between atoms: _429  and  _431
REMARK  186  A    between atoms: _431  and  _432
REMARK  187  A    between atoms: _431  and  _434
REMARK  188  A    between atoms: _434  and  _435
REMARK  189  A    between atoms: _435  and  _436
REMARK  190  A    between atoms: _436  and  _437
REMARK  191  A    between atoms: _446  and  _448
REMARK  192  A    between atoms: _448  and  _449
REMARK  193  A    between atoms: _448  and  _451
REMARK  194  A    between atoms: _451  and  _452
REMARK  195  A    between atoms: _452  and  _453
REMARK  196  A    between atoms: _453  and  _454
REMARK  197  A    between atoms: _463  and  _465
REMARK  198  A    between atoms: _465  and  _466
REMARK  199  A    between atoms: _465  and  _468
REMARK  200  A    between atoms: _468  and  _469
REMARK  201  A    between atoms: _474  and  _476
REMARK  202  A    between atoms: _476  and  _477
REMARK  203  A    between atoms: _476  and  _479
REMARK  204  A    between atoms: _479  and  _480
REMARK  205  A    between atoms: _483  and  _485
REMARK  206  A    between atoms: _485  and  _486
REMARK  207  A    between atoms: _485  and  _488
REMARK  208  A    between atoms: _488  and  _489
REMARK  209  A    between atoms: _492  and  _494
REMARK  210  A    between atoms: _494  and  _495
REMARK  211  A    between atoms: _494  and  _497
REMARK  212  A    between atoms: _497  and  _498
REMARK  213  A    between atoms: _500  and  _502
REMARK  214  A    between atoms: _502  and  _503
REMARK  215  A    between atoms: _502  and  _505
REMARK  216  A    between atoms: _505  and  _506
REMARK  217  A    between atoms: _506  and  _507
REMARK  218  A    between atoms: _507  and  _508
REMARK  219  A    between atoms: _508  and  _509
REMARK  220  A    between atoms: _513  and  _515
REMARK  221  A    between atoms: _515  and  _516
REMARK  222  A    between atoms: _515  and  _518
REMARK  223  A    between atoms: _518  and  _519
REMARK  224  A    between atoms: _522  and  _524
REMARK  225  A    between atoms: _524  and  _525
REMARK  226  A    between atoms: _524  and  _527
REMARK  227  A    between atoms: _529  and  _531
REMARK  228  A    between atoms: _531  and  _532
REMARK  229  A    between atoms: _531  and  _534
REMARK  230  A    between atoms: _534  and  _535
REMARK  231  A    between atoms: _538  and  _540
REMARK  232  A    between atoms: _540  and  _541
REMARK  233  A    between atoms: _540  and  _543
REMARK  234  A    between atoms: _543  and  _544
REMARK  235  A    between atoms: _550  and  _552
REMARK  236  A    between atoms: _552  and  _553
REMARK  237  A    between atoms: _555  and  _557
REMARK  238  A    between atoms: _557  and  _558
REMARK  239  A    between atoms: _557  and  _560
REMARK  240  A    between atoms: _560  and  _561
REMARK  241  A    between atoms: _564  and  _566
REMARK  242  A    between atoms: _566  and  _567
REMARK  243  A    between atoms: _570  and  _572
REMARK  244  A    between atoms: _572  and  _573
REMARK  245  A    between atoms: _572  and  _575
REMARK  246  A    between atoms: _575  and  _576
REMARK  247  A    between atoms: _576  and  _577
REMARK  248  A    between atoms: _577  and  _578
REMARK                            x       y       z     vdW  Elec       q    Type
REMARK                         _______ _______ _______ _____ _____    ______ ____
ROOT
ATOM      1  O   HOH     1     -14.592  -1.027 -11.962  0.00  0.00    +0.000 OA
ENDROOT
TORSDOF 0
REMARK  Name = ../refined-set-2016/4ase/4ase_pocket.pdb
REMARK  248 active torsions:
REMARK  status: ('A' for Active; 'I' for Inactive)
REMARK    1  A    between atoms: _1  and  _3
REMARK    2  A    between atoms: _3  and  _4
REMARK    3  A    between atoms: _3  and  _6
REMARK    4  A    between atoms: _6  and  _7
REMARK    5  A    between atoms: _10  and  _12
REMARK    6  A    between atoms: _12  and  _13
REMARK    7  A    between atoms: _12  and  _15
REMARK    8  A    between atoms: _15  and  _16
REMARK    9  A    between atoms: _16  and  _17
REMARK   10  A    between atoms: _17  and  _18
REMARK   11  A    between atoms: _18  and  _19
REMARK   12  A    between atoms: _24  and  _25
REMARK   13  A    between atoms: _30  and  _32
REMARK   14  A    between atoms: _32  and  _33
REMARK   15  A    between atoms: _32  and  _35
REMARK   16  A    between atoms: _35  and  _36
REMARK   17  A    between atoms: _39  and  _41
REMARK   18  A    between atoms: _41  and  _42
REMARK   19  A    between atoms: _44  and  _46
REMARK   20  A    between atoms: _46  and  _47
REMARK   21  A    between atoms: _46  and  _49
REMARK   22  A    between atoms: _49  and  _50
REMARK   23  A    between atoms: _50  and  _51
REMARK   24  A    between atoms: _51  and  _52
REMARK   25  A    between atoms: _61  and  _63
REMARK   26  A    between atoms: _63  and  _64
REMARK   27  A    between atoms: _63  and  _66
REMARK   28  A    between atoms: _66  and  _67
REMARK   29  A    between atoms: _67  and  _68
REMARK   30  A    between atoms: _73  and  _75
REMARK   31  A    between atoms: _75  and  _76
REMARK   32  A    between atoms: _75  and  _78
REMARK   33  A    between atoms: _81  and  _83
REMARK   34  A    between atoms: _83  and  _84
REMARK   35  A    between atoms: _83  and  _86
REMARK   36  A    between atoms: _86  and  _87
REMARK   37  A    between atoms: _90  and  _92
REMARK   38  A    between atoms: _92  and  _93
REMARK   39  A    between atoms: _92  and  _95
REMARK   40  A    between atoms: _95  and  _96
REMARK   41  A    between atoms: _96  and  _97
REMARK   42  A    between atoms: _100  and  _102
REMARK   43  A    between atoms: _102  and  _103
REMARK   44  A    between atoms: _102  and  _105
REMARK   45  A    between atoms: _105  and  _106
REMARK   46  A    between atoms: _109  and  _111
REMARK   47  A    between atoms: _111  and  _112
REMARK   48  A    between atoms: _111  and  _114
REMARK   49  A    between atoms: _117  and  _119
REMARK   50  A    between atoms: _119  and  _120
REMARK   51  A    between atoms: _123  and  _125
REMARK   52  A    between atoms: _125  and  _126
REMARK   53  A    between atoms: _125  and  _128
REMARK   54  A    between atoms: _131  and  _133
REMARK   55  A    between atoms: _133  and  _134
REMARK   56  A    between atoms: _133  and  _136
REMARK   57  A    between atoms: _136  and  _137
REMARK   58  A    between atoms: _137  and  _138
REMARK   59  A    between atoms: _138  and  _139
REMARK   60  A    between atoms: _139  and  _140
REMARK   61  A    between atoms: _144  and  _146
REMARK   62  A    between atoms: _146  and  _147
REMARK   63  A    between atoms: _146  and  _149
REMARK   64  A    between atoms: _149  and  _150
REMARK   65  A    between atoms: _150  and  _151
REMARK   66  A    between atoms: _153  and  _155
REMARK   67  A    between atoms: _155  and  _156
REMARK   68  A    between atoms: _155  and  _158
REMARK   69  A    between atoms: _158  and  _159
REMARK   70  A    between atoms: _162  and  _164
REMARK   71  A    between atoms: _164  and  _165
REMARK   72  A    between atoms: _164  and  _167
REMARK   73  A    between atoms: _167  and  _168
REMARK   74  A    between atoms: _170  and  _172
REMARK   75  A    between atoms: _172  and  _173
REMARK   76  A    between atoms: _172  and  _175
REMARK   77  A    between atoms: _175  and  _176
REMARK   78  A    between atoms: _176  and  _177
REMARK   79  A    between atoms: _180  and  _182
REMARK   80  A    between atoms: _182  and  _183
REMARK   81  A    between atoms: _182  and  _185
REMARK   82  A    between atoms: _185  and  _186
REMARK   83  A    between atoms: _189  and  _191
REMARK   84  A    between atoms: _191  and  _192
REMARK   85  A    between atoms: _191  and  _194
REMARK   86  A    between atoms: _194  and  _195
REMARK   87  A    between atoms: _198  and  _200
REMARK   88  A    between atoms: _200  and  _201
REMARK   89  A    between atoms: _200  and  _203
REMARK   90  A    between atoms: _203  and  _204
REMARK   91  A    between atoms: _207  and  _209
REMARK   92  A    between atoms: _209  and  _210
REMARK   93  A    between atoms: _209  and  _212
REMARK   94  A    between atoms: _212  and  _213
REMARK   95  A    between atoms: _216  and  _218
REMARK   96  A    between atoms: _218  and  _219
REMARK   97  A    between atoms: _218  and  _221
REMARK   98  A    between atoms: _221  and  _222
REMARK   99  A    between atoms: _225  and  _227
REMARK  100  A    between atoms: _227  and  _228
REMARK  101  A    between atoms: _227  and  _230
REMARK  102  A    between atoms: _233  and  _235
REMARK  103  A    between atoms: _235  and  _236
REMARK  104  A    between atoms: _235  and  _238
REMARK  105  A    between atoms: _241  and  _243
REMARK  106  A    between atoms: _243  and  _244
REMARK  107  A    between atoms: _243  and  _246
REMARK  108  A    between atoms: _246  and  _247
REMARK  109  A    between atoms: _252  and  _254
REMARK  110  A    between atoms: _254  and  _255
REMARK  111  A    between atoms: _254  and  _257
REMARK  112  A    between atoms: _257  and  _258
REMARK  113  A    between atoms: _261  and  _263
REMARK  114  A    between atoms: _263  and  _264
REMARK  115  A    between atoms: _263  and  _266
REMARK  116  A    between atoms: _266  and  _267
REMARK  117  A    between atoms: _270  and  _272
REMARK  118  A    between atoms: _272  and  _273
REMARK  119  A    between atoms: _275  and  _277
REMARK  120  A    between atoms: _277  and  _278
REMARK  121  A    between atoms: _277  and  _280
REMARK  122  A    between atoms: _280  and  _281
REMARK  123  A    between atoms: _281  and  _282
REMARK  124  A    between atoms: _284  and  _286
REMARK  125  A    between atoms: _286  and  _287
REMARK  126  A    between atoms: _286  and  _289
REMARK  127  A    between atoms: _292  and  _294
REMARK  128  A    between atoms: _294  and  _295
REMARK  129  A    between atoms: _294  and  _297
REMARK  130  A    between atoms: _297  and  _298
REMARK  131  A    between atoms: _301  and  _303
REMARK  132  A    between atoms: _303  and  _304
REMARK  133  A    between atoms: _303  and  _306
REMARK  134  A    between atoms: _309  and  _311
REMARK  135  A    between atoms: _311  and  _312
REMARK  136  A    between atoms: _311  and  _314
REMARK  137  A    between atoms: _314  and  _315
REMARK  138  A    between atoms: _315  and  _316
REMARK  139  A    between atoms: _319  and  _321
REMARK  140  A    between atoms: _321  and  _322
REMARK  141  A    between atoms: _321  and  _324
REMARK  142  A    between atoms: _324  and  _325
REMARK  143  A    between atoms: _331  and  _333
REMARK  144  A    between atoms: _333  and  _334
REMARK  145  A    between atoms: _333  and  _336
REMARK  146  A    between atoms: _338  and  _340
REMARK  147  A    between atoms: _340  and  _341
REMARK  148  A    between atoms: _340  and  _343
REMARK  149  A    between atoms: _343  and  _344
REMARK  150  A    between atoms: _344  and  _345
REMARK  151  A    between atoms: _345  and  _346
REMARK  152  A    between atoms: _346  and  _347
REMARK  153  A    between atoms: _351  and  _353
REMARK  154  A    between atoms: _353  and  _354
REMARK  155  A    between atoms: _353  and  _356
REMARK  156  A    between atoms: _356  and  _357
REMARK  157  A    between atoms: _363  and  _365
REMARK  158  A    between atoms: _365  and  _366
REMARK  159  A    between atoms: _368  and  _370
REMARK  160  A    between atoms: _370  and  _371
REMARK  161  A    between atoms: _370  and  _373
REMARK  162  A    between atoms: _373  and  _374
REMARK  163  A    between atoms: _379  and  _381
REMARK  164  A    between atoms: _381  and  _382
REMARK  165  A    between atoms: _384  and  _386
REMARK  166  A    between atoms: _386  and  _387
REMARK  167  A    between atoms: _386  and  _389
REMARK  168  A    between atoms: _389  and  _390
REMARK  169  A    between atoms: _390  and  _391
REMARK  170  A    between atoms: _393  and  _395
REMARK  171  A    between atoms: _395  and  _396
REMARK  172  A    between atoms: _395  and  _398
REMARK  173  A    between atoms: _398  and  _399
REMARK  174  A    between atoms: _402  and  _404
REMARK  175  A    between atoms: _404  and  _405
REMARK  176  A    between atoms: _404  and  _407
REMARK  177  A    between atoms: _409  and  _411
REMARK  178  A    between atoms: _411  and  _412
REMARK  179  A    between atoms: _411  and  _414
REMARK  180  A    between atoms: _414  and  _415
REMARK  181  A    between atoms: _418  and  _420
REMARK  182  A    between atoms: _420  and  _421
REMARK  183  A    between atoms: _420  and  _423
REMARK  184  A    between atoms: _423  and  _424
REMARK  185  A    between atoms: _429  and  _431
REMARK  186  A    between atoms: _431  and  _432
REMARK  187  A    between atoms: _431  and  _434
REMARK  188  A    between atoms: _434  and  _435
REMARK  189  A    between atoms: _435  and  _436
REMARK  190  A    between atoms: _436  and  _437
REMARK  191  A    between atoms: _446  and  _448
REMARK  192  A    between atoms: _448  and  _449
REMARK  193  A    between atoms: _448  and  _451
REMARK  194  A    between atoms: _451  and  _452
REMARK  195  A    between atoms: _452  and  _453
REMARK  196  A    between atoms: _453  and  _454
REMARK  197  A    between atoms: _463  and  _465
REMARK  198  A    between atoms: _465  and  _466
REMARK  199  A    between atoms: _465  and  _468
REMARK  200  A    between atoms: _468  and  _469
REMARK  201  A    between atoms: _474  and  _476
REMARK  202  A    between atoms: _476  and  _477
REMARK  203  A    between atoms: _476  and  _479
REMARK  204  A    between atoms: _479  and  _480
REMARK  205  A    between atoms: _483  and  _485
REMARK  206  A    between atoms: _485  and  _486
REMARK  207  A    between atoms: _485  and  _488
REMARK  208  A    between atoms: _488  and  _489
REMARK  209  A    between atoms: _492  and  _494
REMARK  210  A    between atoms: _494  and  _495
REMARK  211  A    between atoms: _494  and  _497
REMARK  212  A    between atoms: _497  and  _498
REMARK  213  A    between atoms: _500  and  _502
REMARK  214  A    between atoms: _502  and  _503
REMARK  215  A    between atoms: _502  and  _505
REMARK  216  A    between atoms: _505  and  _506
REMARK  217  A    between atoms: _506  and  _507
REMARK  218  A    between atoms: _507  and  _508
REMARK  219  A    between atoms: _508  and  _509
REMARK  220  A    between atoms: _513  and  _515
REMARK  221  A    between atoms: _515  and  _516
REMARK  222  A    between atoms: _515  and  _518
REMARK  223  A    between atoms: _518  and  _519
REMARK  224  A    between atoms: _522  and  _524
REMARK  225  A    between atoms: _524  and  _525
REMARK  226  A    between atoms: _524  and  _527
REMARK  227  A    between atoms: _529  and  _531
REMARK  228  A    between atoms: _531  and  _532
REMARK  229  A    between atoms: _531  and  _534
REMARK  230  A    between atoms: _534  and  _535
REMARK  231  A    between atoms: _538  and  _540
REMARK  232  A    between atoms: _540  and  _541
REMARK  233  A    between atoms: _540  and  _543
REMARK  234  A    between atoms: _543  and  _544
REMARK  235  A    between atoms: _550  and  _552
REMARK  236  A    between atoms: _552  and  _553
REMARK  237  A    between atoms: _555  and  _557
REMARK  238  A    between atoms: _557  and  _558
REMARK  239  A    between atoms: _557  and  _560
REMARK  240  A    between atoms: _560  and  _561
REMARK  241  A    between atoms: _564  and  _566
REMARK  242  A    between atoms: _566  and  _567
REMARK  243  A    between atoms: _570  and  _572
REMARK  244  A    between atoms: _572  and  _573
REMARK  245  A    between atoms: _572  and  _575
REMARK  246  A    between atoms: _575  and  _576
REMARK  247  A    between atoms: _576  and  _577
REMARK  248  A    between atoms: _577  and  _578
REMARK                            x       y       z     vdW  Elec       q    Type
REMARK                         _______ _______ _______ _____ _____    ______ ____
ROOT
ATOM      1  O   HOH     1     -27.103  -5.640  -3.326  0.00  0.00    +0.000 OA
ENDROOT
TORSDOF 0
REMARK  Name = ../refined-set-2016/4ase/4ase_pocket.pdb
REMARK  248 active torsions:
REMARK  status: ('A' for Active; 'I' for Inactive)
REMARK    1  A    between atoms: _1  and  _3
REMARK    2  A    between atoms: _3  and  _4
REMARK    3  A    between atoms: _3  and  _6
REMARK    4  A    between atoms: _6  and  _7
REMARK    5  A    between atoms: _10  and  _12
REMARK    6  A    between atoms: _12  and  _13
REMARK    7  A    between atoms: _12  and  _15
REMARK    8  A    between atoms: _15  and  _16
REMARK    9  A    between atoms: _16  and  _17
REMARK   10  A    between atoms: _17  and  _18
REMARK   11  A    between atoms: _18  and  _19
REMARK   12  A    between atoms: _24  and  _25
REMARK   13  A    between atoms: _30  and  _32
REMARK   14  A    between atoms: _32  and  _33
REMARK   15  A    between atoms: _32  and  _35
REMARK   16  A    between atoms: _35  and  _36
REMARK   17  A    between atoms: _39  and  _41
REMARK   18  A    between atoms: _41  and  _42
REMARK   19  A    between atoms: _44  and  _46
REMARK   20  A    between atoms: _46  and  _47
REMARK   21  A    between atoms: _46  and  _49
REMARK   22  A    between atoms: _49  and  _50
REMARK   23  A    between atoms: _50  and  _51
REMARK   24  A    between atoms: _51  and  _52
REMARK   25  A    between atoms: _61  and  _63
REMARK   26  A    between atoms: _63  and  _64
REMARK   27  A    between atoms: _63  and  _66
REMARK   28  A    between atoms: _66  and  _67
REMARK   29  A    between atoms: _67  and  _68
REMARK   30  A    between atoms: _73  and  _75
REMARK   31  A    between atoms: _75  and  _76
REMARK   32  A    between atoms: _75  and  _78
REMARK   33  A    between atoms: _81  and  _83
REMARK   34  A    between atoms: _83  and  _84
REMARK   35  A    between atoms: _83  and  _86
REMARK   36  A    between atoms: _86  and  _87
REMARK   37  A    between atoms: _90  and  _92
REMARK   38  A    between atoms: _92  and  _93
REMARK   39  A    between atoms: _92  and  _95
REMARK   40  A    between atoms: _95  and  _96
REMARK   41  A    between atoms: _96  and  _97
REMARK   42  A    between atoms: _100  and  _102
REMARK   43  A    between atoms: _102  and  _103
REMARK   44  A    between atoms: _102  and  _105
REMARK   45  A    between atoms: _105  and  _106
REMARK   46  A    between atoms: _109  and  _111
REMARK   47  A    between atoms: _111  and  _112
REMARK   48  A    between atoms: _111  and  _114
REMARK   49  A    between atoms: _117  and  _119
REMARK   50  A    between atoms: _119  and  _120
REMARK   51  A    between atoms: _123  and  _125
REMARK   52  A    between atoms: _125  and  _126
REMARK   53  A    between atoms: _125  and  _128
REMARK   54  A    between atoms: _131  and  _133
REMARK   55  A    between atoms: _133  and  _134
REMARK   56  A    between atoms: _133  and  _136
REMARK   57  A    between atoms: _136  and  _137
REMARK   58  A    between atoms: _137  and  _138
REMARK   59  A    between atoms: _138  and  _139
REMARK   60  A    between atoms: _139  and  _140
REMARK   61  A    between atoms: _144  and  _146
REMARK   62  A    between atoms: _146  and  _147
REMARK   63  A    between atoms: _146  and  _149
REMARK   64  A    between atoms: _149  and  _150
REMARK   65  A    between atoms: _150  and  _151
REMARK   66  A    between atoms: _153  and  _155
REMARK   67  A    between atoms: _155  and  _156
REMARK   68  A    between atoms: _155  and  _158
REMARK   69  A    between atoms: _158  and  _159
REMARK   70  A    between atoms: _162  and  _164
REMARK   71  A    between atoms: _164  and  _165
REMARK   72  A    between atoms: _164  and  _167
REMARK   73  A    between atoms: _167  and  _168
REMARK   74  A    between atoms: _170  and  _172
REMARK   75  A    between atoms: _172  and  _173
REMARK   76  A    between atoms: _172  and  _175
REMARK   77  A    between atoms: _175  and  _176
REMARK   78  A    between atoms: _176  and  _177
REMARK   79  A    between atoms: _180  and  _182
REMARK   80  A    between atoms: _182  and  _183
REMARK   81  A    between atoms: _182  and  _185
REMARK   82  A    between atoms: _185  and  _186
REMARK   83  A    between atoms: _189  and  _191
REMARK   84  A    between atoms: _191  and  _192
REMARK   85  A    between atoms: _191  and  _194
REMARK   86  A    between atoms: _194  and  _195
REMARK   87  A    between atoms: _198  and  _200
REMARK   88  A    between atoms: _200  and  _201
REMARK   89  A    between atoms: _200  and  _203
REMARK   90  A    between atoms: _203  and  _204
REMARK   91  A    between atoms: _207  and  _209
REMARK   92  A    between atoms: _209  and  _210
REMARK   93  A    between atoms: _209  and  _212
REMARK   94  A    between atoms: _212  and  _213
REMARK   95  A    between atoms: _216  and  _218
REMARK   96  A    between atoms: _218  and  _219
REMARK   97  A    between atoms: _218  and  _221
REMARK   98  A    between atoms: _221  and  _222
REMARK   99  A    between atoms: _225  and  _227
REMARK  100  A    between atoms: _227  and  _228
REMARK  101  A    between atoms: _227  and  _230
REMARK  102  A    between atoms: _233  and  _235
REMARK  103  A    between atoms: _235  and  _236
REMARK  104  A    between atoms: _235  and  _238
REMARK  105  A    between atoms: _241  and  _243
REMARK  106  A    between atoms: _243  and  _244
REMARK  107  A    between atoms: _243  and  _246
REMARK  108  A    between atoms: _246  and  _247
REMARK  109  A    between atoms: _252  and  _254
REMARK  110  A    between atoms: _254  and  _255
REMARK  111  A    between atoms: _254  and  _257
REMARK  112  A    between atoms: _257  and  _258
REMARK  113  A    between atoms: _261  and  _263
REMARK  114  A    between atoms: _263  and  _264
REMARK  115  A    between atoms: _263  and  _266
REMARK  116  A    between atoms: _266  and  _267
REMARK  117  A    between atoms: _270  and  _272
REMARK  118  A    between atoms: _272  and  _273
REMARK  119  A    between atoms: _275  and  _277
REMARK  120  A    between atoms: _277  and  _278
REMARK  121  A    between atoms: _277  and  _280
REMARK  122  A    between atoms: _280  and  _281
REMARK  123  A    between atoms: _281  and  _282
REMARK  124  A    between atoms: _284  and  _286
REMARK  125  A    between atoms: _286  and  _287
REMARK  126  A    between atoms: _286  and  _289
REMARK  127  A    between atoms: _292  and  _294
REMARK  128  A    between atoms: _294  and  _295
REMARK  129  A    between atoms: _294  and  _297
REMARK  130  A    between atoms: _297  and  _298
REMARK  131  A    between atoms: _301  and  _303
REMARK  132  A    between atoms: _303  and  _304
REMARK  133  A    between atoms: _303  and  _306
REMARK  134  A    between atoms: _309  and  _311
REMARK  135  A    between atoms: _311  and  _312
REMARK  136  A    between atoms: _311  and  _314
REMARK  137  A    between atoms: _314  and  _315
REMARK  138  A    between atoms: _315  and  _316
REMARK  139  A    between atoms: _319  and  _321
REMARK  140  A    between atoms: _321  and  _322
REMARK  141  A    between atoms: _321  and  _324
REMARK  142  A    between atoms: _324  and  _325
REMARK  143  A    between atoms: _331  and  _333
REMARK  144  A    between atoms: _333  and  _334
REMARK  145  A    between atoms: _333  and  _336
REMARK  146  A    between atoms: _338  and  _340
REMARK  147  A    between atoms: _340  and  _341
REMARK  148  A    between atoms: _340  and  _343
REMARK  149  A    between atoms: _343  and  _344
REMARK  150  A    between atoms: _344  and  _345
REMARK  151  A    between atoms: _345  and  _346
REMARK  152  A    between atoms: _346  and  _347
REMARK  153  A    between atoms: _351  and  _353
REMARK  154  A    between atoms: _353  and  _354
REMARK  155  A    between atoms: _353  and  _356
REMARK  156  A    between atoms: _356  and  _357
REMARK  157  A    between atoms: _363  and  _365
REMARK  158  A    between atoms: _365  and  _366
REMARK  159  A    between atoms: _368  and  _370
REMARK  160  A    between atoms: _370  and  _371
REMARK  161  A    between atoms: _370  and  _373
REMARK  162  A    between atoms: _373  and  _374
REMARK  163  A    between atoms: _379  and  _381
REMARK  164  A    between atoms: _381  and  _382
REMARK  165  A    between atoms: _384  and  _386
REMARK  166  A    between atoms: _386  and  _387
REMARK  167  A    between atoms: _386  and  _389
REMARK  168  A    between atoms: _389  and  _390
REMARK  169  A    between atoms: _390  and  _391
REMARK  170  A    between atoms: _393  and  _395
REMARK  171  A    between atoms: _395  and  _396
REMARK  172  A    between atoms: _395  and  _398
REMARK  173  A    between atoms: _398  and  _399
REMARK  174  A    between atoms: _402  and  _404
REMARK  175  A    between atoms: _404  and  _405
REMARK  176  A    between atoms: _404  and  _407
REMARK  177  A    between atoms: _409  and  _411
REMARK  178  A    between atoms: _411  and  _412
REMARK  179  A    between atoms: _411  and  _414
REMARK  180  A    between atoms: _414  and  _415
REMARK  181  A    between atoms: _418  and  _420
REMARK  182  A    between atoms: _420  and  _421
REMARK  183  A    between atoms: _420  and  _423
REMARK  184  A    between atoms: _423  and  _424
REMARK  185  A    between atoms: _429  and  _431
REMARK  186  A    between atoms: _431  and  _432
REMARK  187  A    between atoms: _431  and  _434
REMARK  188  A    between atoms: _434  and  _435
REMARK  189  A    between atoms: _435  and  _436
REMARK  190  A    between atoms: _436  and  _437
REMARK  191  A    between atoms: _446  and  _448
REMARK  192  A    between atoms: _448  and  _449
REMARK  193  A    between atoms: _448  and  _451
REMARK  194  A    between atoms: _451  and  _452
REMARK  195  A    between atoms: _452  and  _453
REMARK  196  A    between atoms: _453  and  _454
REMARK  197  A    between atoms: _463  and  _465
REMARK  198  A    between atoms: _465  and  _466
REMARK  199  A    between atoms: _465  and  _468
REMARK  200  A    between atoms: _468  and  _469
REMARK  201  A    between atoms: _474  and  _476
REMARK  202  A    between atoms: _476  and  _477
REMARK  203  A    between atoms: _476  and  _479
REMARK  204  A    between atoms: _479  and  _480
REMARK  205  A    between atoms: _483  and  _485
REMARK  206  A    between atoms: _485  and  _486
REMARK  207  A    between atoms: _485  and  _488
REMARK  208  A    between atoms: _488  and  _489
REMARK  209  A    between atoms: _492  and  _494
REMARK  210  A    between atoms: _494  and  _495
REMARK  211  A    between atoms: _494  and  _497
REMARK  212  A    between atoms: _497  and  _498
REMARK  213  A    between atoms: _500  and  _502
REMARK  214  A    between atoms: _502  and  _503
REMARK  215  A    between atoms: _502  and  _505
REMARK  216  A    between atoms: _505  and  _506
REMARK  217  A    between atoms: _506  and  _507
REMARK  218  A    between atoms: _507  and  _508
REMARK  219  A    between atoms: _508  and  _509
REMARK  220  A    between atoms: _513  and  _515
REMARK  221  A    between atoms: _515  and  _516
REMARK  222  A    between atoms: _515  and  _518
REMARK  223  A    between atoms: _518  and  _519
REMARK  224  A    between atoms: _522  and  _524
REMARK  225  A    between atoms: _524  and  _525
REMARK  226  A    between atoms: _524  and  _527
REMARK  227  A    between atoms: _529  and  _531
REMARK  228  A    between atoms: _531  and  _532
REMARK  229  A    between atoms: _531  and  _534
REMARK  230  A    between atoms: _534  and  _535
REMARK  231  A    between atoms: _538  and  _540
REMARK  232  A    between atoms: _540  and  _541
REMARK  233  A    between atoms: _540  and  _543
REMARK  234  A    between atoms: _543  and  _544
REMARK  235  A    between atoms: _550  and  _552
REMARK  236  A    between atoms: _552  and  _553
REMARK  237  A    between atoms: _555  and  _557
REMARK  238  A    between atoms: _557  and  _558
REMARK  239  A    between atoms: _557  and  _560
REMARK  240  A    between atoms: _560  and  _561
REMARK  241  A    between atoms: _564  and  _566
REMARK  242  A    between atoms: _566  and  _567
REMARK  243  A    between atoms: _570  and  _572
REMARK  244  A    between atoms: _572  and  _573
REMARK  245  A    between atoms: _572  and  _575
REMARK  246  A    between atoms: _575  and  _576
REMARK  247  A    between atoms: _576  and  _577
REMARK  248  A    between atoms: _577  and  _578
REMARK                            x       y       z     vdW  Elec       q    Type
REMARK                         _______ _______ _______ _____ _____    ______ ____
ROOT
ATOM      1  O   HOH     1     -15.012  -2.558  -9.338  0.00  0.00    +0.000 OA
ENDROOT
TORSDOF 0
REMARK  Name = ../refined-set-2016/4ase/4ase_pocket.pdb
REMARK  248 active torsions:
REMARK  status: ('A' for Active; 'I' for Inactive)
REMARK    1  A    between atoms: _1  and  _3
REMARK    2  A    between atoms: _3  and  _4
REMARK    3  A    between atoms: _3  and  _6
REMARK    4  A    between atoms: _6  and  _7
REMARK    5  A    between atoms: _10  and  _12
REMARK    6  A    between atoms: _12  and  _13
REMARK    7  A    between atoms: _12  and  _15
REMARK    8  A    between atoms: _15  and  _16
REMARK    9  A    between atoms: _16  and  _17
REMARK   10  A    between atoms: _17  and  _18
REMARK   11  A    between atoms: _18  and  _19
REMARK   12  A    between atoms: _24  and  _25
REMARK   13  A    between atoms: _30  and  _32
REMARK   14  A    between atoms: _32  and  _33
REMARK   15  A    between atoms: _32  and  _35
REMARK   16  A    between atoms: _35  and  _36
REMARK   17  A    between atoms: _39  and  _41
REMARK   18  A    between atoms: _41  and  _42
REMARK   19  A    between atoms: _44  and  _46
REMARK   20  A    between atoms: _46  and  _47
REMARK   21  A    between atoms: _46  and  _49
REMARK   22  A    between atoms: _49  and  _50
REMARK   23  A    between atoms: _50  and  _51
REMARK   24  A    between atoms: _51  and  _52
REMARK   25  A    between atoms: _61  and  _63
REMARK   26  A    between atoms: _63  and  _64
REMARK   27  A    between atoms: _63  and  _66
REMARK   28  A    between atoms: _66  and  _67
REMARK   29  A    between atoms: _67  and  _68
REMARK   30  A    between atoms: _73  and  _75
REMARK   31  A    between atoms: _75  and  _76
REMARK   32  A    between atoms: _75  and  _78
REMARK   33  A    between atoms: _81  and  _83
REMARK   34  A    between atoms: _83  and  _84
REMARK   35  A    between atoms: _83  and  _86
REMARK   36  A    between atoms: _86  and  _87
REMARK   37  A    between atoms: _90  and  _92
REMARK   38  A    between atoms: _92  and  _93
REMARK   39  A    between atoms: _92  and  _95
REMARK   40  A    between atoms: _95  and  _96
REMARK   41  A    between atoms: _96  and  _97
REMARK   42  A    between atoms: _100  and  _102
REMARK   43  A    between atoms: _102  and  _103
REMARK   44  A    between atoms: _102  and  _105
REMARK   45  A    between atoms: _105  and  _106
REMARK   46  A    between atoms: _109  and  _111
REMARK   47  A    between atoms: _111  and  _112
REMARK   48  A    between atoms: _111  and  _114
REMARK   49  A    between atoms: _117  and  _119
REMARK   50  A    between atoms: _119  and  _120
REMARK   51  A    between atoms: _123  and  _125
REMARK   52  A    between atoms: _125  and  _126
REMARK   53  A    between atoms: _125  and  _128
REMARK   54  A    between atoms: _131  and  _133
REMARK   55  A    between atoms: _133  and  _134
REMARK   56  A    between atoms: _133  and  _136
REMARK   57  A    between atoms: _136  and  _137
REMARK   58  A    between atoms: _137  and  _138
REMARK   59  A    between atoms: _138  and  _139
REMARK   60  A    between atoms: _139  and  _140
REMARK   61  A    between atoms: _144  and  _146
REMARK   62  A    between atoms: _146  and  _147
REMARK   63  A    between atoms: _146  and  _149
REMARK   64  A    between atoms: _149  and  _150
REMARK   65  A    between atoms: _150  and  _151
REMARK   66  A    between atoms: _153  and  _155
REMARK   67  A    between atoms: _155  and  _156
REMARK   68  A    between atoms: _155  and  _158
REMARK   69  A    between atoms: _158  and  _159
REMARK   70  A    between atoms: _162  and  _164
REMARK   71  A    between atoms: _164  and  _165
REMARK   72  A    between atoms: _164  and  _167
REMARK   73  A    between atoms: _167  and  _168
REMARK   74  A    between atoms: _170  and  _172
REMARK   75  A    between atoms: _172  and  _173
REMARK   76  A    between atoms: _172  and  _175
REMARK   77  A    between atoms: _175  and  _176
REMARK   78  A    between atoms: _176  and  _177
REMARK   79  A    between atoms: _180  and  _182
REMARK   80  A    between atoms: _182  and  _183
REMARK   81  A    between atoms: _182  and  _185
REMARK   82  A    between atoms: _185  and  _186
REMARK   83  A    between atoms: _189  and  _191
REMARK   84  A    between atoms: _191  and  _192
REMARK   85  A    between atoms: _191  and  _194
REMARK   86  A    between atoms: _194  and  _195
REMARK   87  A    between atoms: _198  and  _200
REMARK   88  A    between atoms: _200  and  _201
REMARK   89  A    between atoms: _200  and  _203
REMARK   90  A    between atoms: _203  and  _204
REMARK   91  A    between atoms: _207  and  _209
REMARK   92  A    between atoms: _209  and  _210
REMARK   93  A    between atoms: _209  and  _212
REMARK   94  A    between atoms: _212  and  _213
REMARK   95  A    between atoms: _216  and  _218
REMARK   96  A    between atoms: _218  and  _219
REMARK   97  A    between atoms: _218  and  _221
REMARK   98  A    between atoms: _221  and  _222
REMARK   99  A    between atoms: _225  and  _227
REMARK  100  A    between atoms: _227  and  _228
REMARK  101  A    between atoms: _227  and  _230
REMARK  102  A    between atoms: _233  and  _235
REMARK  103  A    between atoms: _235  and  _236
REMARK  104  A    between atoms: _235  and  _238
REMARK  105  A    between atoms: _241  and  _243
REMARK  106  A    between atoms: _243  and  _244
REMARK  107  A    between atoms: _243  and  _246
REMARK  108  A    between atoms: _246  and  _247
REMARK  109  A    between atoms: _252  and  _254
REMARK  110  A    between atoms: _254  and  _255
REMARK  111  A    between atoms: _254  and  _257
REMARK  112  A    between atoms: _257  and  _258
REMARK  113  A    between atoms: _261  and  _263
REMARK  114  A    between atoms: _263  and  _264
REMARK  115  A    between atoms: _263  and  _266
REMARK  116  A    between atoms: _266  and  _267
REMARK  117  A    between atoms: _270  and  _272
REMARK  118  A    between atoms: _272  and  _273
REMARK  119  A    between atoms: _275  and  _277
REMARK  120  A    between atoms: _277  and  _278
REMARK  121  A    between atoms: _277  and  _280
REMARK  122  A    between atoms: _280  and  _281
REMARK  123  A    between atoms: _281  and  _282
REMARK  124  A    between atoms: _284  and  _286
REMARK  125  A    between atoms: _286  and  _287
REMARK  126  A    between atoms: _286  and  _289
REMARK  127  A    between atoms: _292  and  _294
REMARK  128  A    between atoms: _294  and  _295
REMARK  129  A    between atoms: _294  and  _297
REMARK  130  A    between atoms: _297  and  _298
REMARK  131  A    between atoms: _301  and  _303
REMARK  132  A    between atoms: _303  and  _304
REMARK  133  A    between atoms: _303  and  _306
REMARK  134  A    between atoms: _309  and  _311
REMARK  135  A    between atoms: _311  and  _312
REMARK  136  A    between atoms: _311  and  _314
REMARK  137  A    between atoms: _314  and  _315
REMARK  138  A    between atoms: _315  and  _316
REMARK  139  A    between atoms: _319  and  _321
REMARK  140  A    between atoms: _321  and  _322
REMARK  141  A    between atoms: _321  and  _324
REMARK  142  A    between atoms: _324  and  _325
REMARK  143  A    between atoms: _331  and  _333
REMARK  144  A    between atoms: _333  and  _334
REMARK  145  A    between atoms: _333  and  _336
REMARK  146  A    between atoms: _338  and  _340
REMARK  147  A    between atoms: _340  and  _341
REMARK  148  A    between atoms: _340  and  _343
REMARK  149  A    between atoms: _343  and  _344
REMARK  150  A    between atoms: _344  and  _345
REMARK  151  A    between atoms: _345  and  _346
REMARK  152  A    between atoms: _346  and  _347
REMARK  153  A    between atoms: _351  and  _353
REMARK  154  A    between atoms: _353  and  _354
REMARK  155  A    between atoms: _353  and  _356
REMARK  156  A    between atoms: _356  and  _357
REMARK  157  A    between atoms: _363  and  _365
REMARK  158  A    between atoms: _365  and  _366
REMARK  159  A    between atoms: _368  and  _370
REMARK  160  A    between atoms: _370  and  _371
REMARK  161  A    between atoms: _370  and  _373
REMARK  162  A    between atoms: _373  and  _374
REMARK  163  A    between atoms: _379  and  _381
REMARK  164  A    between atoms: _381  and  _382
REMARK  165  A    between atoms: _384  and  _386
REMARK  166  A    between atoms: _386  and  _387
REMARK  167  A    between atoms: _386  and  _389
REMARK  168  A    between atoms: _389  and  _390
REMARK  169  A    between atoms: _390  and  _391
REMARK  170  A    between atoms: _393  and  _395
REMARK  171  A    between atoms: _395  and  _396
REMARK  172  A    between atoms: _395  and  _398
REMARK  173  A    between atoms: _398  and  _399
REMARK  174  A    between atoms: _402  and  _404
REMARK  175  A    between atoms: _404  and  _405
REMARK  176  A    between atoms: _404  and  _407
REMARK  177  A    between atoms: _409  and  _411
REMARK  178  A    between atoms: _411  and  _412
REMARK  179  A    between atoms: _411  and  _414
REMARK  180  A    between atoms: _414  and  _415
REMARK  181  A    between atoms: _418  and  _420
REMARK  182  A    between atoms: _420  and  _421
REMARK  183  A    between atoms: _420  and  _423
REMARK  184  A    between atoms: _423  and  _424
REMARK  185  A    between atoms: _429  and  _431
REMARK  186  A    between atoms: _431  and  _432
REMARK  187  A    between atoms: _431  and  _434
REMARK  188  A    between atoms: _434  and  _435
REMARK  189  A    between atoms: _435  and  _436
REMARK  190  A    between atoms: _436  and  _437
REMARK  191  A    between atoms: _446  and  _448
REMARK  192  A    between atoms: _448  and  _449
REMARK  193  A    between atoms: _448  and  _451
REMARK  194  A    between atoms: _451  and  _452
REMARK  195  A    between atoms: _452  and  _453
REMARK  196  A    between atoms: _453  and  _454
REMARK  197  A    between atoms: _463  and  _465
REMARK  198  A    between atoms: _465  and  _466
REMARK  199  A    between atoms: _465  and  _468
REMARK  200  A    between atoms: _468  and  _469
REMARK  201  A    between atoms: _474  and  _476
REMARK  202  A    between atoms: _476  and  _477
REMARK  203  A    between atoms: _476  and  _479
REMARK  204  A    between atoms: _479  and  _480
REMARK  205  A    between atoms: _483  and  _485
REMARK  206  A    between atoms: _485  and  _486
REMARK  207  A    between atoms: _485  and  _488
REMARK  208  A    between atoms: _488  and  _489
REMARK  209  A    between atoms: _492  and  _494
REMARK  210  A    between atoms: _494  and  _495
REMARK  211  A    between atoms: _494  and  _497
REMARK  212  A    between atoms: _497  and  _498
REMARK  213  A    between atoms: _500  and  _502
REMARK  214  A    between atoms: _502  and  _503
REMARK  215  A    between atoms: _502  and  _505
REMARK  216  A    between atoms: _505  and  _506
REMARK  217  A    between atoms: _506  and  _507
REMARK  218  A    between atoms: _507  and  _508
REMARK  219  A    between atoms: _508  and  _509
REMARK  220  A    between atoms: _513  and  _515
REMARK  221  A    between atoms: _515  and  _516
REMARK  222  A    between atoms: _515  and  _518
REMARK  223  A    between atoms: _518  and  _519
REMARK  224  A    between atoms: _522  and  _524
REMARK  225  A    between atoms: _524  and  _525
REMARK  226  A    between atoms: _524  and  _527
REMARK  227  A    between atoms: _529  and  _531
REMARK  228  A    between atoms: _531  and  _532
REMARK  229  A    between atoms: _531  and  _534
REMARK  230  A    between atoms: _534  and  _535
REMARK  231  A    between atoms: _538  and  _540
REMARK  232  A    between atoms: _540  and  _541
REMARK  233  A    between atoms: _540  and  _543
REMARK  234  A    between atoms: _543  and  _544
REMARK  235  A    between atoms: _550  and  _552
REMARK  236  A    between atoms: _552  and  _553
REMARK  237  A    between atoms: _555  and  _557
REMARK  238  A    between atoms: _557  and  _558
REMARK  239  A    between atoms: _557  and  _560
REMARK  240  A    between atoms: _560  and  _561
REMARK  241  A    between atoms: _564  and  _566
REMARK  242  A    between atoms: _566  and  _567
REMARK  243  A    between atoms: _570  and  _572
REMARK  244  A    between atoms: _572  and  _573
REMARK  245  A    between atoms: _572  and  _575
REMARK  246  A    between atoms: _575  and  _576
REMARK  247  A    between atoms: _576  and  _577
REMARK  248  A    between atoms: _577  and  _578
REMARK                            x       y       z     vdW  Elec       q    Type
REMARK                         _______ _______ _______ _____ _____    ______ ____
ROOT
ATOM      1  O   HOH     1     -16.018  -4.653 -13.976  0.00  0.00    +0.000 OA
ENDROOT
TORSDOF 0
REMARK  Name = ../refined-set-2016/4ase/4ase_pocket.pdb
REMARK  248 active torsions:
REMARK  status: ('A' for Active; 'I' for Inactive)
REMARK    1  A    between atoms: _1  and  _3
REMARK    2  A    between atoms: _3  and  _4
REMARK    3  A    between atoms: _3  and  _6
REMARK    4  A    between atoms: _6  and  _7
REMARK    5  A    between atoms: _10  and  _12
REMARK    6  A    between atoms: _12  and  _13
REMARK    7  A    between atoms: _12  and  _15
REMARK    8  A    between atoms: _15  and  _16
REMARK    9  A    between atoms: _16  and  _17
REMARK   10  A    between atoms: _17  and  _18
REMARK   11  A    between atoms: _18  and  _19
REMARK   12  A    between atoms: _24  and  _25
REMARK   13  A    between atoms: _30  and  _32
REMARK   14  A    between atoms: _32  and  _33
REMARK   15  A    between atoms: _32  and  _35
REMARK   16  A    between atoms: _35  and  _36
REMARK   17  A    between atoms: _39  and  _41
REMARK   18  A    between atoms: _41  and  _42
REMARK   19  A    between atoms: _44  and  _46
REMARK   20  A    between atoms: _46  and  _47
REMARK   21  A    between atoms: _46  and  _49
REMARK   22  A    between atoms: _49  and  _50
REMARK   23  A    between atoms: _50  and  _51
REMARK   24  A    between atoms: _51  and  _52
REMARK   25  A    between atoms: _61  and  _63
REMARK   26  A    between atoms: _63  and  _64
REMARK   27  A    between atoms: _63  and  _66
REMARK   28  A    between atoms: _66  and  _67
REMARK   29  A    between atoms: _67  and  _68
REMARK   30  A    between atoms: _73  and  _75
REMARK   31  A    between atoms: _75  and  _76
REMARK   32  A    between atoms: _75  and  _78
REMARK   33  A    between atoms: _81  and  _83
REMARK   34  A    between atoms: _83  and  _84
REMARK   35  A    between atoms: _83  and  _86
REMARK   36  A    between atoms: _86  and  _87
REMARK   37  A    between atoms: _90  and  _92
REMARK   38  A    between atoms: _92  and  _93
REMARK   39  A    between atoms: _92  and  _95
REMARK   40  A    between atoms: _95  and  _96
REMARK   41  A    between atoms: _96  and  _97
REMARK   42  A    between atoms: _100  and  _102
REMARK   43  A    between atoms: _102  and  _103
REMARK   44  A    between atoms: _102  and  _105
REMARK   45  A    between atoms: _105  and  _106
REMARK   46  A    between atoms: _109  and  _111
REMARK   47  A    between atoms: _111  and  _112
REMARK   48  A    between atoms: _111  and  _114
REMARK   49  A    between atoms: _117  and  _119
REMARK   50  A    between atoms: _119  and  _120
REMARK   51  A    between atoms: _123  and  _125
REMARK   52  A    between atoms: _125  and  _126
REMARK   53  A    between atoms: _125  and  _128
REMARK   54  A    between atoms: _131  and  _133
REMARK   55  A    between atoms: _133  and  _134
REMARK   56  A    between atoms: _133  and  _136
REMARK   57  A    between atoms: _136  and  _137
REMARK   58  A    between atoms: _137  and  _138
REMARK   59  A    between atoms: _138  and  _139
REMARK   60  A    between atoms: _139  and  _140
REMARK   61  A    between atoms: _144  and  _146
REMARK   62  A    between atoms: _146  and  _147
REMARK   63  A    between atoms: _146  and  _149
REMARK   64  A    between atoms: _149  and  _150
REMARK   65  A    between atoms: _150  and  _151
REMARK   66  A    between atoms: _153  and  _155
REMARK   67  A    between atoms: _155  and  _156
REMARK   68  A    between atoms: _155  and  _158
REMARK   69  A    between atoms: _158  and  _159
REMARK   70  A    between atoms: _162  and  _164
REMARK   71  A    between atoms: _164  and  _165
REMARK   72  A    between atoms: _164  and  _167
REMARK   73  A    between atoms: _167  and  _168
REMARK   74  A    between atoms: _170  and  _172
REMARK   75  A    between atoms: _172  and  _173
REMARK   76  A    between atoms: _172  and  _175
REMARK   77  A    between atoms: _175  and  _176
REMARK   78  A    between atoms: _176  and  _177
REMARK   79  A    between atoms: _180  and  _182
REMARK   80  A    between atoms: _182  and  _183
REMARK   81  A    between atoms: _182  and  _185
REMARK   82  A    between atoms: _185  and  _186
REMARK   83  A    between atoms: _189  and  _191
REMARK   84  A    between atoms: _191  and  _192
REMARK   85  A    between atoms: _191  and  _194
REMARK   86  A    between atoms: _194  and  _195
REMARK   87  A    between atoms: _198  and  _200
REMARK   88  A    between atoms: _200  and  _201
REMARK   89  A    between atoms: _200  and  _203
REMARK   90  A    between atoms: _203  and  _204
REMARK   91  A    between atoms: _207  and  _209
REMARK   92  A    between atoms: _209  and  _210
REMARK   93  A    between atoms: _209  and  _212
REMARK   94  A    between atoms: _212  and  _213
REMARK   95  A    between atoms: _216  and  _218
REMARK   96  A    between atoms: _218  and  _219
REMARK   97  A    between atoms: _218  and  _221
REMARK   98  A    between atoms: _221  and  _222
REMARK   99  A    between atoms: _225  and  _227
REMARK  100  A    between atoms: _227  and  _228
REMARK  101  A    between atoms: _227  and  _230
REMARK  102  A    between atoms: _233  and  _235
REMARK  103  A    between atoms: _235  and  _236
REMARK  104  A    between atoms: _235  and  _238
REMARK  105  A    between atoms: _241  and  _243
REMARK  106  A    between atoms: _243  and  _244
REMARK  107  A    between atoms: _243  and  _246
REMARK  108  A    between atoms: _246  and  _247
REMARK  109  A    between atoms: _252  and  _254
REMARK  110  A    between atoms: _254  and  _255
REMARK  111  A    between atoms: _254  and  _257
REMARK  112  A    between atoms: _257  and  _258
REMARK  113  A    between atoms: _261  and  _263
REMARK  114  A    between atoms: _263  and  _264
REMARK  115  A    between atoms: _263  and  _266
REMARK  116  A    between atoms: _266  and  _267
REMARK  117  A    between atoms: _270  and  _272
REMARK  118  A    between atoms: _272  and  _273
REMARK  119  A    between atoms: _275  and  _277
REMARK  120  A    between atoms: _277  and  _278
REMARK  121  A    between atoms: _277  and  _280
REMARK  122  A    between atoms: _280  and  _281
REMARK  123  A    between atoms: _281  and  _282
REMARK  124  A    between atoms: _284  and  _286
REMARK  125  A    between atoms: _286  and  _287
REMARK  126  A    between atoms: _286  and  _289
REMARK  127  A    between atoms: _292  and  _294
REMARK  128  A    between atoms: _294  and  _295
REMARK  129  A    between atoms: _294  and  _297
REMARK  130  A    between atoms: _297  and  _298
REMARK  131  A    between atoms: _301  and  _303
REMARK  132  A    between atoms: _303  and  _304
REMARK  133  A    between atoms: _303  and  _306
REMARK  134  A    between atoms: _309  and  _311
REMARK  135  A    between atoms: _311  and  _312
REMARK  136  A    between atoms: _311  and  _314
REMARK  137  A    between atoms: _314  and  _315
REMARK  138  A    between atoms: _315  and  _316
REMARK  139  A    between atoms: _319  and  _321
REMARK  140  A    between atoms: _321  and  _322
REMARK  141  A    between atoms: _321  and  _324
REMARK  142  A    between atoms: _324  and  _325
REMARK  143  A    between atoms: _331  and  _333
REMARK  144  A    between atoms: _333  and  _334
REMARK  145  A    between atoms: _333  and  _336
REMARK  146  A    between atoms: _338  and  _340
REMARK  147  A    between atoms: _340  and  _341
REMARK  148  A    between atoms: _340  and  _343
REMARK  149  A    between atoms: _343  and  _344
REMARK  150  A    between atoms: _344  and  _345
REMARK  151  A    between atoms: _345  and  _346
REMARK  152  A    between atoms: _346  and  _347
REMARK  153  A    between atoms: _351  and  _353
REMARK  154  A    between atoms: _353  and  _354
REMARK  155  A    between atoms: _353  and  _356
REMARK  156  A    between atoms: _356  and  _357
REMARK  157  A    between atoms: _363  and  _365
REMARK  158  A    between atoms: _365  and  _366
REMARK  159  A    between atoms: _368  and  _370
REMARK  160  A    between atoms: _370  and  _371
REMARK  161  A    between atoms: _370  and  _373
REMARK  162  A    between atoms: _373  and  _374
REMARK  163  A    between atoms: _379  and  _381
REMARK  164  A    between atoms: _381  and  _382
REMARK  165  A    between atoms: _384  and  _386
REMARK  166  A    between atoms: _386  and  _387
REMARK  167  A    between atoms: _386  and  _389
REMARK  168  A    between atoms: _389  and  _390
REMARK  169  A    between atoms: _390  and  _391
REMARK  170  A    between atoms: _393  and  _395
REMARK  171  A    between atoms: _395  and  _396
REMARK  172  A    between atoms: _395  and  _398
REMARK  173  A    between atoms: _398  and  _399
REMARK  174  A    between atoms: _402  and  _404
REMARK  175  A    between atoms: _404  and  _405
REMARK  176  A    between atoms: _404  and  _407
REMARK  177  A    between atoms: _409  and  _411
REMARK  178  A    between atoms: _411  and  _412
REMARK  179  A    between atoms: _411  and  _414
REMARK  180  A    between atoms: _414  and  _415
REMARK  181  A    between atoms: _418  and  _420
REMARK  182  A    between atoms: _420  and  _421
REMARK  183  A    between atoms: _420  and  _423
REMARK  184  A    between atoms: _423  and  _424
REMARK  185  A    between atoms: _429  and  _431
REMARK  186  A    between atoms: _431  and  _432
REMARK  187  A    between atoms: _431  and  _434
REMARK  188  A    between atoms: _434  and  _435
REMARK  189  A    between atoms: _435  and  _436
REMARK  190  A    between atoms: _436  and  _437
REMARK  191  A    between atoms: _446  and  _448
REMARK  192  A    between atoms: _448  and  _449
REMARK  193  A    between atoms: _448  and  _451
REMARK  194  A    between atoms: _451  and  _452
REMARK  195  A    between atoms: _452  and  _453
REMARK  196  A    between atoms: _453  and  _454
REMARK  197  A    between atoms: _463  and  _465
REMARK  198  A    between atoms: _465  and  _466
REMARK  199  A    between atoms: _465  and  _468
REMARK  200  A    between atoms: _468  and  _469
REMARK  201  A    between atoms: _474  and  _476
REMARK  202  A    between atoms: _476  and  _477
REMARK  203  A    between atoms: _476  and  _479
REMARK  204  A    between atoms: _479  and  _480
REMARK  205  A    between atoms: _483  and  _485
REMARK  206  A    between atoms: _485  and  _486
REMARK  207  A    between atoms: _485  and  _488
REMARK  208  A    between atoms: _488  and  _489
REMARK  209  A    between atoms: _492  and  _494
REMARK  210  A    between atoms: _494  and  _495
REMARK  211  A    between atoms: _494  and  _497
REMARK  212  A    between atoms: _497  and  _498
REMARK  213  A    between atoms: _500  and  _502
REMARK  214  A    between atoms: _502  and  _503
REMARK  215  A    between atoms: _502  and  _505
REMARK  216  A    between atoms: _505  and  _506
REMARK  217  A    between atoms: _506  and  _507
REMARK  218  A    between atoms: _507  and  _508
REMARK  219  A    between atoms: _508  and  _509
REMARK  220  A    between atoms: _513  and  _515
REMARK  221  A    between atoms: _515  and  _516
REMARK  222  A    between atoms: _515  and  _518
REMARK  223  A    between atoms: _518  and  _519
REMARK  224  A    between atoms: _522  and  _524
REMARK  225  A    between atoms: _524  and  _525
REMARK  226  A    between atoms: _524  and  _527
REMARK  227  A    between atoms: _529  and  _531
REMARK  228  A    between atoms: _531  and  _532
REMARK  229  A    between atoms: _531  and  _534
REMARK  230  A    between atoms: _534  and  _535
REMARK  231  A    between atoms: _538  and  _540
REMARK  232  A    between atoms: _540  and  _541
REMARK  233  A    between atoms: _540  and  _543
REMARK  234  A    between atoms: _543  and  _544
REMARK  235  A    between atoms: _550  and  _552
REMARK  236  A    between atoms: _552  and  _553
REMARK  237  A    between atoms: _555  and  _557
REMARK  238  A    between atoms: _557  and  _558
REMARK  239  A    between atoms: _557  and  _560
REMARK  240  A    between atoms: _560  and  _561
REMARK  241  A    between atoms: _564  and  _566
REMARK  242  A    between atoms: _566  and  _567
REMARK  243  A    between atoms: _570  and  _572
REMARK  244  A    between atoms: _572  and  _573
REMARK  245  A    between atoms: _572  and  _575
REMARK  246  A    between atoms: _575  and  _576
REMARK  247  A    between atoms: _576  and  _577
REMARK  248  A    between atoms: _577  and  _578
REMARK                            x       y       z     vdW  Elec       q    Type
REMARK                         _______ _______ _______ _____ _____    ______ ____
ROOT
ATOM      1  O   HOH     1     -14.963   9.367 -19.546  0.00  0.00    +0.000 OA
ENDROOT
TORSDOF 0
REMARK  Name = ../refined-set-2016/4ase/4ase_pocket.pdb
REMARK  248 active torsions:
REMARK  status: ('A' for Active; 'I' for Inactive)
REMARK    1  A    between atoms: _1  and  _3
REMARK    2  A    between atoms: _3  and  _4
REMARK    3  A    between atoms: _3  and  _6
REMARK    4  A    between atoms: _6  and  _7
REMARK    5  A    between atoms: _10  and  _12
REMARK    6  A    between atoms: _12  and  _13
REMARK    7  A    between atoms: _12  and  _15
REMARK    8  A    between atoms: _15  and  _16
REMARK    9  A    between atoms: _16  and  _17
REMARK   10  A    between atoms: _17  and  _18
REMARK   11  A    between atoms: _18  and  _19
REMARK   12  A    between atoms: _24  and  _25
REMARK   13  A    between atoms: _30  and  _32
REMARK   14  A    between atoms: _32  and  _33
REMARK   15  A    between atoms: _32  and  _35
REMARK   16  A    between atoms: _35  and  _36
REMARK   17  A    between atoms: _39  and  _41
REMARK   18  A    between atoms: _41  and  _42
REMARK   19  A    between atoms: _44  and  _46
REMARK   20  A    between atoms: _46  and  _47
REMARK   21  A    between atoms: _46  and  _49
REMARK   22  A    between atoms: _49  and  _50
REMARK   23  A    between atoms: _50  and  _51
REMARK   24  A    between atoms: _51  and  _52
REMARK   25  A    between atoms: _61  and  _63
REMARK   26  A    between atoms: _63  and  _64
REMARK   27  A    between atoms: _63  and  _66
REMARK   28  A    between atoms: _66  and  _67
REMARK   29  A    between atoms: _67  and  _68
REMARK   30  A    between atoms: _73  and  _75
REMARK   31  A    between atoms: _75  and  _76
REMARK   32  A    between atoms: _75  and  _78
REMARK   33  A    between atoms: _81  and  _83
REMARK   34  A    between atoms: _83  and  _84
REMARK   35  A    between atoms: _83  and  _86
REMARK   36  A    between atoms: _86  and  _87
REMARK   37  A    between atoms: _90  and  _92
REMARK   38  A    between atoms: _92  and  _93
REMARK   39  A    between atoms: _92  and  _95
REMARK   40  A    between atoms: _95  and  _96
REMARK   41  A    between atoms: _96  and  _97
REMARK   42  A    between atoms: _100  and  _102
REMARK   43  A    between atoms: _102  and  _103
REMARK   44  A    between atoms: _102  and  _105
REMARK   45  A    between atoms: _105  and  _106
REMARK   46  A    between atoms: _109  and  _111
REMARK   47  A    between atoms: _111  and  _112
REMARK   48  A    between atoms: _111  and  _114
REMARK   49  A    between atoms: _117  and  _119
REMARK   50  A    between atoms: _119  and  _120
REMARK   51  A    between atoms: _123  and  _125
REMARK   52  A    between atoms: _125  and  _126
REMARK   53  A    between atoms: _125  and  _128
REMARK   54  A    between atoms: _131  and  _133
REMARK   55  A    between atoms: _133  and  _134
REMARK   56  A    between atoms: _133  and  _136
REMARK   57  A    between atoms: _136  and  _137
REMARK   58  A    between atoms: _137  and  _138
REMARK   59  A    between atoms: _138  and  _139
REMARK   60  A    between atoms: _139  and  _140
REMARK   61  A    between atoms: _144  and  _146
REMARK   62  A    between atoms: _146  and  _147
REMARK   63  A    between atoms: _146  and  _149
REMARK   64  A    between atoms: _149  and  _150
REMARK   65  A    between atoms: _150  and  _151
REMARK   66  A    between atoms: _153  and  _155
REMARK   67  A    between atoms: _155  and  _156
REMARK   68  A    between atoms: _155  and  _158
REMARK   69  A    between atoms: _158  and  _159
REMARK   70  A    between atoms: _162  and  _164
REMARK   71  A    between atoms: _164  and  _165
REMARK   72  A    between atoms: _164  and  _167
REMARK   73  A    between atoms: _167  and  _168
REMARK   74  A    between atoms: _170  and  _172
REMARK   75  A    between atoms: _172  and  _173
REMARK   76  A    between atoms: _172  and  _175
REMARK   77  A    between atoms: _175  and  _176
REMARK   78  A    between atoms: _176  and  _177
REMARK   79  A    between atoms: _180  and  _182
REMARK   80  A    between atoms: _182  and  _183
REMARK   81  A    between atoms: _182  and  _185
REMARK   82  A    between atoms: _185  and  _186
REMARK   83  A    between atoms: _189  and  _191
REMARK   84  A    between atoms: _191  and  _192
REMARK   85  A    between atoms: _191  and  _194
REMARK   86  A    between atoms: _194  and  _195
REMARK   87  A    between atoms: _198  and  _200
REMARK   88  A    between atoms: _200  and  _201
REMARK   89  A    between atoms: _200  and  _203
REMARK   90  A    between atoms: _203  and  _204
REMARK   91  A    between atoms: _207  and  _209
REMARK   92  A    between atoms: _209  and  _210
REMARK   93  A    between atoms: _209  and  _212
REMARK   94  A    between atoms: _212  and  _213
REMARK   95  A    between atoms: _216  and  _218
REMARK   96  A    between atoms: _218  and  _219
REMARK   97  A    between atoms: _218  and  _221
REMARK   98  A    between atoms: _221  and  _222
REMARK   99  A    between atoms: _225  and  _227
REMARK  100  A    between atoms: _227  and  _228
REMARK  101  A    between atoms: _227  and  _230
REMARK  102  A    between atoms: _233  and  _235
REMARK  103  A    between atoms: _235  and  _236
REMARK  104  A    between atoms: _235  and  _238
REMARK  105  A    between atoms: _241  and  _243
REMARK  106  A    between atoms: _243  and  _244
REMARK  107  A    between atoms: _243  and  _246
REMARK  108  A    between atoms: _246  and  _247
REMARK  109  A    between atoms: _252  and  _254
REMARK  110  A    between atoms: _254  and  _255
REMARK  111  A    between atoms: _254  and  _257
REMARK  112  A    between atoms: _257  and  _258
REMARK  113  A    between atoms: _261  and  _263
REMARK  114  A    between atoms: _263  and  _264
REMARK  115  A    between atoms: _263  and  _266
REMARK  116  A    between atoms: _266  and  _267
REMARK  117  A    between atoms: _270  and  _272
REMARK  118  A    between atoms: _272  and  _273
REMARK  119  A    between atoms: _275  and  _277
REMARK  120  A    between atoms: _277  and  _278
REMARK  121  A    between atoms: _277  and  _280
REMARK  122  A    between atoms: _280  and  _281
REMARK  123  A    between atoms: _281  and  _282
REMARK  124  A    between atoms: _284  and  _286
REMARK  125  A    between atoms: _286  and  _287
REMARK  126  A    between atoms: _286  and  _289
REMARK  127  A    between atoms: _292  and  _294
REMARK  128  A    between atoms: _294  and  _295
REMARK  129  A    between atoms: _294  and  _297
REMARK  130  A    between atoms: _297  and  _298
REMARK  131  A    between atoms: _301  and  _303
REMARK  132  A    between atoms: _303  and  _304
REMARK  133  A    between atoms: _303  and  _306
REMARK  134  A    between atoms: _309  and  _311
REMARK  135  A    between atoms: _311  and  _312
REMARK  136  A    between atoms: _311  and  _314
REMARK  137  A    between atoms: _314  and  _315
REMARK  138  A    between atoms: _315  and  _316
REMARK  139  A    between atoms: _319  and  _321
REMARK  140  A    between atoms: _321  and  _322
REMARK  141  A    between atoms: _321  and  _324
REMARK  142  A    between atoms: _324  and  _325
REMARK  143  A    between atoms: _331  and  _333
REMARK  144  A    between atoms: _333  and  _334
REMARK  145  A    between atoms: _333  and  _336
REMARK  146  A    between atoms: _338  and  _340
REMARK  147  A    between atoms: _340  and  _341
REMARK  148  A    between atoms: _340  and  _343
REMARK  149  A    between atoms: _343  and  _344
REMARK  150  A    between atoms: _344  and  _345
REMARK  151  A    between atoms: _345  and  _346
REMARK  152  A    between atoms: _346  and  _347
REMARK  153  A    between atoms: _351  and  _353
REMARK  154  A    between atoms: _353  and  _354
REMARK  155  A    between atoms: _353  and  _356
REMARK  156  A    between atoms: _356  and  _357
REMARK  157  A    between atoms: _363  and  _365
REMARK  158  A    between atoms: _365  and  _366
REMARK  159  A    between atoms: _368  and  _370
REMARK  160  A    between atoms: _370  and  _371
REMARK  161  A    between atoms: _370  and  _373
REMARK  162  A    between atoms: _373  and  _374
REMARK  163  A    between atoms: _379  and  _381
REMARK  164  A    between atoms: _381  and  _382
REMARK  165  A    between atoms: _384  and  _386
REMARK  166  A    between atoms: _386  and  _387
REMARK  167  A    between atoms: _386  and  _389
REMARK  168  A    between atoms: _389  and  _390
REMARK  169  A    between atoms: _390  and  _391
REMARK  170  A    between atoms: _393  and  _395
REMARK  171  A    between atoms: _395  and  _396
REMARK  172  A    between atoms: _395  and  _398
REMARK  173  A    between atoms: _398  and  _399
REMARK  174  A    between atoms: _402  and  _404
REMARK  175  A    between atoms: _404  and  _405
REMARK  176  A    between atoms: _404  and  _407
REMARK  177  A    between atoms: _409  and  _411
REMARK  178  A    between atoms: _411  and  _412
REMARK  179  A    between atoms: _411  and  _414
REMARK  180  A    between atoms: _414  and  _415
REMARK  181  A    between atoms: _418  and  _420
REMARK  182  A    between atoms: _420  and  _421
REMARK  183  A    between atoms: _420  and  _423
REMARK  184  A    between atoms: _423  and  _424
REMARK  185  A    between atoms: _429  and  _431
REMARK  186  A    between atoms: _431  and  _432
REMARK  187  A    between atoms: _431  and  _434
REMARK  188  A    between atoms: _434  and  _435
REMARK  189  A    between atoms: _435  and  _436
REMARK  190  A    between atoms: _436  and  _437
REMARK  191  A    between atoms: _446  and  _448
REMARK  192  A    between atoms: _448  and  _449
REMARK  193  A    between atoms: _448  and  _451
REMARK  194  A    between atoms: _451  and  _452
REMARK  195  A    between atoms: _452  and  _453
REMARK  196  A    between atoms: _453  and  _454
REMARK  197  A    between atoms: _463  and  _465
REMARK  198  A    between atoms: _465  and  _466
REMARK  199  A    between atoms: _465  and  _468
REMARK  200  A    between atoms: _468  and  _469
REMARK  201  A    between atoms: _474  and  _476
REMARK  202  A    between atoms: _476  and  _477
REMARK  203  A    between atoms: _476  and  _479
REMARK  204  A    between atoms: _479  and  _480
REMARK  205  A    between atoms: _483  and  _485
REMARK  206  A    between atoms: _485  and  _486
REMARK  207  A    between atoms: _485  and  _488
REMARK  208  A    between atoms: _488  and  _489
REMARK  209  A    between atoms: _492  and  _494
REMARK  210  A    between atoms: _494  and  _495
REMARK  211  A    between atoms: _494  and  _497
REMARK  212  A    between atoms: _497  and  _498
REMARK  213  A    between atoms: _500  and  _502
REMARK  214  A    between atoms: _502  and  _503
REMARK  215  A    between atoms: _502  and  _505
REMARK  216  A    between atoms: _505  and  _506
REMARK  217  A    between atoms: _506  and  _507
REMARK  218  A    between atoms: _507  and  _508
REMARK  219  A    between atoms: _508  and  _509
REMARK  220  A    between atoms: _513  and  _515
REMARK  221  A    between atoms: _515  and  _516
REMARK  222  A    between atoms: _515  and  _518
REMARK  223  A    between atoms: _518  and  _519
REMARK  224  A    between atoms: _522  and  _524
REMARK  225  A    between atoms: _524  and  _525
REMARK  226  A    between atoms: _524  and  _527
REMARK  227  A    between atoms: _529  and  _531
REMARK  228  A    between atoms: _531  and  _532
REMARK  229  A    between atoms: _531  and  _534
REMARK  230  A    between atoms: _534  and  _535
REMARK  231  A    between atoms: _538  and  _540
REMARK  232  A    between atoms: _540  and  _541
REMARK  233  A    between atoms: _540  and  _543
REMARK  234  A    between atoms: _543  and  _544
REMARK  235  A    between atoms: _550  and  _552
REMARK  236  A    between atoms: _552  and  _553
REMARK  237  A    between atoms: _555  and  _557
REMARK  238  A    between atoms: _557  and  _558
REMARK  239  A    between atoms: _557  and  _560
REMARK  240  A    between atoms: _560  and  _561
REMARK  241  A    between atoms: _564  and  _566
REMARK  242  A    between atoms: _566  and  _567
REMARK  243  A    between atoms: _570  and  _572
REMARK  244  A    between atoms: _572  and  _573
REMARK  245  A    between atoms: _572  and  _575
REMARK  246  A    between atoms: _575  and  _576
REMARK  247  A    between atoms: _576  and  _577
REMARK  248  A    between atoms: _577  and  _578
REMARK                            x       y       z     vdW  Elec       q    Type
REMARK                         _______ _______ _______ _____ _____    ______ ____
ROOT
ATOM      1  O   HOH     1     -12.900  -4.468 -15.025  0.00  0.00    +0.000 OA
ENDROOT
TORSDOF 0
REMARK  Name = ../refined-set-2016/4ase/4ase_pocket.pdb
REMARK  248 active torsions:
REMARK  status: ('A' for Active; 'I' for Inactive)
REMARK    1  A    between atoms: _1  and  _3
REMARK    2  A    between atoms: _3  and  _4
REMARK    3  A    between atoms: _3  and  _6
REMARK    4  A    between atoms: _6  and  _7
REMARK    5  A    between atoms: _10  and  _12
REMARK    6  A    between atoms: _12  and  _13
REMARK    7  A    between atoms: _12  and  _15
REMARK    8  A    between atoms: _15  and  _16
REMARK    9  A    between atoms: _16  and  _17
REMARK   10  A    between atoms: _17  and  _18
REMARK   11  A    between atoms: _18  and  _19
REMARK   12  A    between atoms: _24  and  _25
REMARK   13  A    between atoms: _30  and  _32
REMARK   14  A    between atoms: _32  and  _33
REMARK   15  A    between atoms: _32  and  _35
REMARK   16  A    between atoms: _35  and  _36
REMARK   17  A    between atoms: _39  and  _41
REMARK   18  A    between atoms: _41  and  _42
REMARK   19  A    between atoms: _44  and  _46
REMARK   20  A    between atoms: _46  and  _47
REMARK   21  A    between atoms: _46  and  _49
REMARK   22  A    between atoms: _49  and  _50
REMARK   23  A    between atoms: _50  and  _51
REMARK   24  A    between atoms: _51  and  _52
REMARK   25  A    between atoms: _61  and  _63
REMARK   26  A    between atoms: _63  and  _64
REMARK   27  A    between atoms: _63  and  _66
REMARK   28  A    between atoms: _66  and  _67
REMARK   29  A    between atoms: _67  and  _68
REMARK   30  A    between atoms: _73  and  _75
REMARK   31  A    between atoms: _75  and  _76
REMARK   32  A    between atoms: _75  and  _78
REMARK   33  A    between atoms: _81  and  _83
REMARK   34  A    between atoms: _83  and  _84
REMARK   35  A    between atoms: _83  and  _86
REMARK   36  A    between atoms: _86  and  _87
REMARK   37  A    between atoms: _90  and  _92
REMARK   38  A    between atoms: _92  and  _93
REMARK   39  A    between atoms: _92  and  _95
REMARK   40  A    between atoms: _95  and  _96
REMARK   41  A    between atoms: _96  and  _97
REMARK   42  A    between atoms: _100  and  _102
REMARK   43  A    between atoms: _102  and  _103
REMARK   44  A    between atoms: _102  and  _105
REMARK   45  A    between atoms: _105  and  _106
REMARK   46  A    between atoms: _109  and  _111
REMARK   47  A    between atoms: _111  and  _112
REMARK   48  A    between atoms: _111  and  _114
REMARK   49  A    between atoms: _117  and  _119
REMARK   50  A    between atoms: _119  and  _120
REMARK   51  A    between atoms: _123  and  _125
REMARK   52  A    between atoms: _125  and  _126
REMARK   53  A    between atoms: _125  and  _128
REMARK   54  A    between atoms: _131  and  _133
REMARK   55  A    between atoms: _133  and  _134
REMARK   56  A    between atoms: _133  and  _136
REMARK   57  A    between atoms: _136  and  _137
REMARK   58  A    between atoms: _137  and  _138
REMARK   59  A    between atoms: _138  and  _139
REMARK   60  A    between atoms: _139  and  _140
REMARK   61  A    between atoms: _144  and  _146
REMARK   62  A    between atoms: _146  and  _147
REMARK   63  A    between atoms: _146  and  _149
REMARK   64  A    between atoms: _149  and  _150
REMARK   65  A    between atoms: _150  and  _151
REMARK   66  A    between atoms: _153  and  _155
REMARK   67  A    between atoms: _155  and  _156
REMARK   68  A    between atoms: _155  and  _158
REMARK   69  A    between atoms: _158  and  _159
REMARK   70  A    between atoms: _162  and  _164
REMARK   71  A    between atoms: _164  and  _165
REMARK   72  A    between atoms: _164  and  _167
REMARK   73  A    between atoms: _167  and  _168
REMARK   74  A    between atoms: _170  and  _172
REMARK   75  A    between atoms: _172  and  _173
REMARK   76  A    between atoms: _172  and  _175
REMARK   77  A    between atoms: _175  and  _176
REMARK   78  A    between atoms: _176  and  _177
REMARK   79  A    between atoms: _180  and  _182
REMARK   80  A    between atoms: _182  and  _183
REMARK   81  A    between atoms: _182  and  _185
REMARK   82  A    between atoms: _185  and  _186
REMARK   83  A    between atoms: _189  and  _191
REMARK   84  A    between atoms: _191  and  _192
REMARK   85  A    between atoms: _191  and  _194
REMARK   86  A    between atoms: _194  and  _195
REMARK   87  A    between atoms: _198  and  _200
REMARK   88  A    between atoms: _200  and  _201
REMARK   89  A    between atoms: _200  and  _203
REMARK   90  A    between atoms: _203  and  _204
REMARK   91  A    between atoms: _207  and  _209
REMARK   92  A    between atoms: _209  and  _210
REMARK   93  A    between atoms: _209  and  _212
REMARK   94  A    between atoms: _212  and  _213
REMARK   95  A    between atoms: _216  and  _218
REMARK   96  A    between atoms: _218  and  _219
REMARK   97  A    between atoms: _218  and  _221
REMARK   98  A    between atoms: _221  and  _222
REMARK   99  A    between atoms: _225  and  _227
REMARK  100  A    between atoms: _227  and  _228
REMARK  101  A    between atoms: _227  and  _230
REMARK  102  A    between atoms: _233  and  _235
REMARK  103  A    between atoms: _235  and  _236
REMARK  104  A    between atoms: _235  and  _238
REMARK  105  A    between atoms: _241  and  _243
REMARK  106  A    between atoms: _243  and  _244
REMARK  107  A    between atoms: _243  and  _246
REMARK  108  A    between atoms: _246  and  _247
REMARK  109  A    between atoms: _252  and  _254
REMARK  110  A    between atoms: _254  and  _255
REMARK  111  A    between atoms: _254  and  _257
REMARK  112  A    between atoms: _257  and  _258
REMARK  113  A    between atoms: _261  and  _263
REMARK  114  A    between atoms: _263  and  _264
REMARK  115  A    between atoms: _263  and  _266
REMARK  116  A    between atoms: _266  and  _267
REMARK  117  A    between atoms: _270  and  _272
REMARK  118  A    between atoms: _272  and  _273
REMARK  119  A    between atoms: _275  and  _277
REMARK  120  A    between atoms: _277  and  _278
REMARK  121  A    between atoms: _277  and  _280
REMARK  122  A    between atoms: _280  and  _281
REMARK  123  A    between atoms: _281  and  _282
REMARK  124  A    between atoms: _284  and  _286
REMARK  125  A    between atoms: _286  and  _287
REMARK  126  A    between atoms: _286  and  _289
REMARK  127  A    between atoms: _292  and  _294
REMARK  128  A    between atoms: _294  and  _295
REMARK  129  A    between atoms: _294  and  _297
REMARK  130  A    between atoms: _297  and  _298
REMARK  131  A    between atoms: _301  and  _303
REMARK  132  A    between atoms: _303  and  _304
REMARK  133  A    between atoms: _303  and  _306
REMARK  134  A    between atoms: _309  and  _311
REMARK  135  A    between atoms: _311  and  _312
REMARK  136  A    between atoms: _311  and  _314
REMARK  137  A    between atoms: _314  and  _315
REMARK  138  A    between atoms: _315  and  _316
REMARK  139  A    between atoms: _319  and  _321
REMARK  140  A    between atoms: _321  and  _322
REMARK  141  A    between atoms: _321  and  _324
REMARK  142  A    between atoms: _324  and  _325
REMARK  143  A    between atoms: _331  and  _333
REMARK  144  A    between atoms: _333  and  _334
REMARK  145  A    between atoms: _333  and  _336
REMARK  146  A    between atoms: _338  and  _340
REMARK  147  A    between atoms: _340  and  _341
REMARK  148  A    between atoms: _340  and  _343
REMARK  149  A    between atoms: _343  and  _344
REMARK  150  A    between atoms: _344  and  _345
REMARK  151  A    between atoms: _345  and  _346
REMARK  152  A    between atoms: _346  and  _347
REMARK  153  A    between atoms: _351  and  _353
REMARK  154  A    between atoms: _353  and  _354
REMARK  155  A    between atoms: _353  and  _356
REMARK  156  A    between atoms: _356  and  _357
REMARK  157  A    between atoms: _363  and  _365
REMARK  158  A    between atoms: _365  and  _366
REMARK  159  A    between atoms: _368  and  _370
REMARK  160  A    between atoms: _370  and  _371
REMARK  161  A    between atoms: _370  and  _373
REMARK  162  A    between atoms: _373  and  _374
REMARK  163  A    between atoms: _379  and  _381
REMARK  164  A    between atoms: _381  and  _382
REMARK  165  A    between atoms: _384  and  _386
REMARK  166  A    between atoms: _386  and  _387
REMARK  167  A    between atoms: _386  and  _389
REMARK  168  A    between atoms: _389  and  _390
REMARK  169  A    between atoms: _390  and  _391
REMARK  170  A    between atoms: _393  and  _395
REMARK  171  A    between atoms: _395  and  _396
REMARK  172  A    between atoms: _395  and  _398
REMARK  173  A    between atoms: _398  and  _399
REMARK  174  A    between atoms: _402  and  _404
REMARK  175  A    between atoms: _404  and  _405
REMARK  176  A    between atoms: _404  and  _407
REMARK  177  A    between atoms: _409  and  _411
REMARK  178  A    between atoms: _411  and  _412
REMARK  179  A    between atoms: _411  and  _414
REMARK  180  A    between atoms: _414  and  _415
REMARK  181  A    between atoms: _418  and  _420
REMARK  182  A    between atoms: _420  and  _421
REMARK  183  A    between atoms: _420  and  _423
REMARK  184  A    between atoms: _423  and  _424
REMARK  185  A    between atoms: _429  and  _431
REMARK  186  A    between atoms: _431  and  _432
REMARK  187  A    between atoms: _431  and  _434
REMARK  188  A    between atoms: _434  and  _435
REMARK  189  A    between atoms: _435  and  _436
REMARK  190  A    between atoms: _436  and  _437
REMARK  191  A    between atoms: _446  and  _448
REMARK  192  A    between atoms: _448  and  _449
REMARK  193  A    between atoms: _448  and  _451
REMARK  194  A    between atoms: _451  and  _452
REMARK  195  A    between atoms: _452  and  _453
REMARK  196  A    between atoms: _453  and  _454
REMARK  197  A    between atoms: _463  and  _465
REMARK  198  A    between atoms: _465  and  _466
REMARK  199  A    between atoms: _465  and  _468
REMARK  200  A    between atoms: _468  and  _469
REMARK  201  A    between atoms: _474  and  _476
REMARK  202  A    between atoms: _476  and  _477
REMARK  203  A    between atoms: _476  and  _479
REMARK  204  A    between atoms: _479  and  _480
REMARK  205  A    between atoms: _483  and  _485
REMARK  206  A    between atoms: _485  and  _486
REMARK  207  A    between atoms: _485  and  _488
REMARK  208  A    between atoms: _488  and  _489
REMARK  209  A    between atoms: _492  and  _494
REMARK  210  A    between atoms: _494  and  _495
REMARK  211  A    between atoms: _494  and  _497
REMARK  212  A    between atoms: _497  and  _498
REMARK  213  A    between atoms: _500  and  _502
REMARK  214  A    between atoms: _502  and  _503
REMARK  215  A    between atoms: _502  and  _505
REMARK  216  A    between atoms: _505  and  _506
REMARK  217  A    between atoms: _506  and  _507
REMARK  218  A    between atoms: _507  and  _508
REMARK  219  A    between atoms: _508  and  _509
REMARK  220  A    between atoms: _513  and  _515
REMARK  221  A    between atoms: _515  and  _516
REMARK  222  A    between atoms: _515  and  _518
REMARK  223  A    between atoms: _518  and  _519
REMARK  224  A    between atoms: _522  and  _524
REMARK  225  A    between atoms: _524  and  _525
REMARK  226  A    between atoms: _524  and  _527
REMARK  227  A    between atoms: _529  and  _531
REMARK  228  A    between atoms: _531  and  _532
REMARK  229  A    between atoms: _531  and  _534
REMARK  230  A    between atoms: _534  and  _535
REMARK  231  A    between atoms: _538  and  _540
REMARK  232  A    between atoms: _540  and  _541
REMARK  233  A    between atoms: _540  and  _543
REMARK  234  A    between atoms: _543  and  _544
REMARK  235  A    between atoms: _550  and  _552
REMARK  236  A    between atoms: _552  and  _553
REMARK  237  A    between atoms: _555  and  _557
REMARK  238  A    between atoms: _557  and  _558
REMARK  239  A    between atoms: _557  and  _560
REMARK  240  A    between atoms: _560  and  _561
REMARK  241  A    between atoms: _564  and  _566
REMARK  242  A    between atoms: _566  and  _567
REMARK  243  A    between atoms: _570  and  _572
REMARK  244  A    between atoms: _572  and  _573
REMARK  245  A    between atoms: _572  and  _575
REMARK  246  A    between atoms: _575  and  _576
REMARK  247  A    between atoms: _576  and  _577
REMARK  248  A    between atoms: _577  and  _578
REMARK                            x       y       z     vdW  Elec       q    Type
REMARK                         _______ _______ _______ _____ _____    ______ ____
ROOT
ATOM      1  O   HOH     1     -28.437  -6.176  -7.693  0.00  0.00    +0.000 OA
ENDROOT
TORSDOF 0
REMARK  Name = ../refined-set-2016/4ase/4ase_pocket.pdb
REMARK  248 active torsions:
REMARK  status: ('A' for Active; 'I' for Inactive)
REMARK    1  A    between atoms: _1  and  _3
REMARK    2  A    between atoms: _3  and  _4
REMARK    3  A    between atoms: _3  and  _6
REMARK    4  A    between atoms: _6  and  _7
REMARK    5  A    between atoms: _10  and  _12
REMARK    6  A    between atoms: _12  and  _13
REMARK    7  A    between atoms: _12  and  _15
REMARK    8  A    between atoms: _15  and  _16
REMARK    9  A    between atoms: _16  and  _17
REMARK   10  A    between atoms: _17  and  _18
REMARK   11  A    between atoms: _18  and  _19
REMARK   12  A    between atoms: _24  and  _25
REMARK   13  A    between atoms: _30  and  _32
REMARK   14  A    between atoms: _32  and  _33
REMARK   15  A    between atoms: _32  and  _35
REMARK   16  A    between atoms: _35  and  _36
REMARK   17  A    between atoms: _39  and  _41
REMARK   18  A    between atoms: _41  and  _42
REMARK   19  A    between atoms: _44  and  _46
REMARK   20  A    between atoms: _46  and  _47
REMARK   21  A    between atoms: _46  and  _49
REMARK   22  A    between atoms: _49  and  _50
REMARK   23  A    between atoms: _50  and  _51
REMARK   24  A    between atoms: _51  and  _52
REMARK   25  A    between atoms: _61  and  _63
REMARK   26  A    between atoms: _63  and  _64
REMARK   27  A    between atoms: _63  and  _66
REMARK   28  A    between atoms: _66  and  _67
REMARK   29  A    between atoms: _67  and  _68
REMARK   30  A    between atoms: _73  and  _75
REMARK   31  A    between atoms: _75  and  _76
REMARK   32  A    between atoms: _75  and  _78
REMARK   33  A    between atoms: _81  and  _83
REMARK   34  A    between atoms: _83  and  _84
REMARK   35  A    between atoms: _83  and  _86
REMARK   36  A    between atoms: _86  and  _87
REMARK   37  A    between atoms: _90  and  _92
REMARK   38  A    between atoms: _92  and  _93
REMARK   39  A    between atoms: _92  and  _95
REMARK   40  A    between atoms: _95  and  _96
REMARK   41  A    between atoms: _96  and  _97
REMARK   42  A    between atoms: _100  and  _102
REMARK   43  A    between atoms: _102  and  _103
REMARK   44  A    between atoms: _102  and  _105
REMARK   45  A    between atoms: _105  and  _106
REMARK   46  A    between atoms: _109  and  _111
REMARK   47  A    between atoms: _111  and  _112
REMARK   48  A    between atoms: _111  and  _114
REMARK   49  A    between atoms: _117  and  _119
REMARK   50  A    between atoms: _119  and  _120
REMARK   51  A    between atoms: _123  and  _125
REMARK   52  A    between atoms: _125  and  _126
REMARK   53  A    between atoms: _125  and  _128
REMARK   54  A    between atoms: _131  and  _133
REMARK   55  A    between atoms: _133  and  _134
REMARK   56  A    between atoms: _133  and  _136
REMARK   57  A    between atoms: _136  and  _137
REMARK   58  A    between atoms: _137  and  _138
REMARK   59  A    between atoms: _138  and  _139
REMARK   60  A    between atoms: _139  and  _140
REMARK   61  A    between atoms: _144  and  _146
REMARK   62  A    between atoms: _146  and  _147
REMARK   63  A    between atoms: _146  and  _149
REMARK   64  A    between atoms: _149  and  _150
REMARK   65  A    between atoms: _150  and  _151
REMARK   66  A    between atoms: _153  and  _155
REMARK   67  A    between atoms: _155  and  _156
REMARK   68  A    between atoms: _155  and  _158
REMARK   69  A    between atoms: _158  and  _159
REMARK   70  A    between atoms: _162  and  _164
REMARK   71  A    between atoms: _164  and  _165
REMARK   72  A    between atoms: _164  and  _167
REMARK   73  A    between atoms: _167  and  _168
REMARK   74  A    between atoms: _170  and  _172
REMARK   75  A    between atoms: _172  and  _173
REMARK   76  A    between atoms: _172  and  _175
REMARK   77  A    between atoms: _175  and  _176
REMARK   78  A    between atoms: _176  and  _177
REMARK   79  A    between atoms: _180  and  _182
REMARK   80  A    between atoms: _182  and  _183
REMARK   81  A    between atoms: _182  and  _185
REMARK   82  A    between atoms: _185  and  _186
REMARK   83  A    between atoms: _189  and  _191
REMARK   84  A    between atoms: _191  and  _192
REMARK   85  A    between atoms: _191  and  _194
REMARK   86  A    between atoms: _194  and  _195
REMARK   87  A    between atoms: _198  and  _200
REMARK   88  A    between atoms: _200  and  _201
REMARK   89  A    between atoms: _200  and  _203
REMARK   90  A    between atoms: _203  and  _204
REMARK   91  A    between atoms: _207  and  _209
REMARK   92  A    between atoms: _209  and  _210
REMARK   93  A    between atoms: _209  and  _212
REMARK   94  A    between atoms: _212  and  _213
REMARK   95  A    between atoms: _216  and  _218
REMARK   96  A    between atoms: _218  and  _219
REMARK   97  A    between atoms: _218  and  _221
REMARK   98  A    between atoms: _221  and  _222
REMARK   99  A    between atoms: _225  and  _227
REMARK  100  A    between atoms: _227  and  _228
REMARK  101  A    between atoms: _227  and  _230
REMARK  102  A    between atoms: _233  and  _235
REMARK  103  A    between atoms: _235  and  _236
REMARK  104  A    between atoms: _235  and  _238
REMARK  105  A    between atoms: _241  and  _243
REMARK  106  A    between atoms: _243  and  _244
REMARK  107  A    between atoms: _243  and  _246
REMARK  108  A    between atoms: _246  and  _247
REMARK  109  A    between atoms: _252  and  _254
REMARK  110  A    between atoms: _254  and  _255
REMARK  111  A    between atoms: _254  and  _257
REMARK  112  A    between atoms: _257  and  _258
REMARK  113  A    between atoms: _261  and  _263
REMARK  114  A    between atoms: _263  and  _264
REMARK  115  A    between atoms: _263  and  _266
REMARK  116  A    between atoms: _266  and  _267
REMARK  117  A    between atoms: _270  and  _272
REMARK  118  A    between atoms: _272  and  _273
REMARK  119  A    between atoms: _275  and  _277
REMARK  120  A    between atoms: _277  and  _278
REMARK  121  A    between atoms: _277  and  _280
REMARK  122  A    between atoms: _280  and  _281
REMARK  123  A    between atoms: _281  and  _282
REMARK  124  A    between atoms: _284  and  _286
REMARK  125  A    between atoms: _286  and  _287
REMARK  126  A    between atoms: _286  and  _289
REMARK  127  A    between atoms: _292  and  _294
REMARK  128  A    between atoms: _294  and  _295
REMARK  129  A    between atoms: _294  and  _297
REMARK  130  A    between atoms: _297  and  _298
REMARK  131  A    between atoms: _301  and  _303
REMARK  132  A    between atoms: _303  and  _304
REMARK  133  A    between atoms: _303  and  _306
REMARK  134  A    between atoms: _309  and  _311
REMARK  135  A    between atoms: _311  and  _312
REMARK  136  A    between atoms: _311  and  _314
REMARK  137  A    between atoms: _314  and  _315
REMARK  138  A    between atoms: _315  and  _316
REMARK  139  A    between atoms: _319  and  _321
REMARK  140  A    between atoms: _321  and  _322
REMARK  141  A    between atoms: _321  and  _324
REMARK  142  A    between atoms: _324  and  _325
REMARK  143  A    between atoms: _331  and  _333
REMARK  144  A    between atoms: _333  and  _334
REMARK  145  A    between atoms: _333  and  _336
REMARK  146  A    between atoms: _338  and  _340
REMARK  147  A    between atoms: _340  and  _341
REMARK  148  A    between atoms: _340  and  _343
REMARK  149  A    between atoms: _343  and  _344
REMARK  150  A    between atoms: _344  and  _345
REMARK  151  A    between atoms: _345  and  _346
REMARK  152  A    between atoms: _346  and  _347
REMARK  153  A    between atoms: _351  and  _353
REMARK  154  A    between atoms: _353  and  _354
REMARK  155  A    between atoms: _353  and  _356
REMARK  156  A    between atoms: _356  and  _357
REMARK  157  A    between atoms: _363  and  _365
REMARK  158  A    between atoms: _365  and  _366
REMARK  159  A    between atoms: _368  and  _370
REMARK  160  A    between atoms: _370  and  _371
REMARK  161  A    between atoms: _370  and  _373
REMARK  162  A    between atoms: _373  and  _374
REMARK  163  A    between atoms: _379  and  _381
REMARK  164  A    between atoms: _381  and  _382
REMARK  165  A    between atoms: _384  and  _386
REMARK  166  A    between atoms: _386  and  _387
REMARK  167  A    between atoms: _386  and  _389
REMARK  168  A    between atoms: _389  and  _390
REMARK  169  A    between atoms: _390  and  _391
REMARK  170  A    between atoms: _393  and  _395
REMARK  171  A    between atoms: _395  and  _396
REMARK  172  A    between atoms: _395  and  _398
REMARK  173  A    between atoms: _398  and  _399
REMARK  174  A    between atoms: _402  and  _404
REMARK  175  A    between atoms: _404  and  _405
REMARK  176  A    between atoms: _404  and  _407
REMARK  177  A    between atoms: _409  and  _411
REMARK  178  A    between atoms: _411  and  _412
REMARK  179  A    between atoms: _411  and  _414
REMARK  180  A    between atoms: _414  and  _415
REMARK  181  A    between atoms: _418  and  _420
REMARK  182  A    between atoms: _420  and  _421
REMARK  183  A    between atoms: _420  and  _423
REMARK  184  A    between atoms: _423  and  _424
REMARK  185  A    between atoms: _429  and  _431
REMARK  186  A    between atoms: _431  and  _432
REMARK  187  A    between atoms: _431  and  _434
REMARK  188  A    between atoms: _434  and  _435
REMARK  189  A    between atoms: _435  and  _436
REMARK  190  A    between atoms: _436  and  _437
REMARK  191  A    between atoms: _446  and  _448
REMARK  192  A    between atoms: _448  and  _449
REMARK  193  A    between atoms: _448  and  _451
REMARK  194  A    between atoms: _451  and  _452
REMARK  195  A    between atoms: _452  and  _453
REMARK  196  A    between atoms: _453  and  _454
REMARK  197  A    between atoms: _463  and  _465
REMARK  198  A    between atoms: _465  and  _466
REMARK  199  A    between atoms: _465  and  _468
REMARK  200  A    between atoms: _468  and  _469
REMARK  201  A    between atoms: _474  and  _476
REMARK  202  A    between atoms: _476  and  _477
REMARK  203  A    between atoms: _476  and  _479
REMARK  204  A    between atoms: _479  and  _480
REMARK  205  A    between atoms: _483  and  _485
REMARK  206  A    between atoms: _485  and  _486
REMARK  207  A    between atoms: _485  and  _488
REMARK  208  A    between atoms: _488  and  _489
REMARK  209  A    between atoms: _492  and  _494
REMARK  210  A    between atoms: _494  and  _495
REMARK  211  A    between atoms: _494  and  _497
REMARK  212  A    between atoms: _497  and  _498
REMARK  213  A    between atoms: _500  and  _502
REMARK  214  A    between atoms: _502  and  _503
REMARK  215  A    between atoms: _502  and  _505
REMARK  216  A    between atoms: _505  and  _506
REMARK  217  A    between atoms: _506  and  _507
REMARK  218  A    between atoms: _507  and  _508
REMARK  219  A    between atoms: _508  and  _509
REMARK  220  A    between atoms: _513  and  _515
REMARK  221  A    between atoms: _515  and  _516
REMARK  222  A    between atoms: _515  and  _518
REMARK  223  A    between atoms: _518  and  _519
REMARK  224  A    between atoms: _522  and  _524
REMARK  225  A    between atoms: _524  and  _525
REMARK  226  A    between atoms: _524  and  _527
REMARK  227  A    between atoms: _529  and  _531
REMARK  228  A    between atoms: _531  and  _532
REMARK  229  A    between atoms: _531  and  _534
REMARK  230  A    between atoms: _534  and  _535
REMARK  231  A    between atoms: _538  and  _540
REMARK  232  A    between atoms: _540  and  _541
REMARK  233  A    between atoms: _540  and  _543
REMARK  234  A    between atoms: _543  and  _544
REMARK  235  A    between atoms: _550  and  _552
REMARK  236  A    between atoms: _552  and  _553
REMARK  237  A    between atoms: _555  and  _557
REMARK  238  A    between atoms: _557  and  _558
REMARK  239  A    between atoms: _557  and  _560
REMARK  240  A    between atoms: _560  and  _561
REMARK  241  A    between atoms: _564  and  _566
REMARK  242  A    between atoms: _566  and  _567
REMARK  243  A    between atoms: _570  and  _572
REMARK  244  A    between atoms: _572  and  _573
REMARK  245  A    between atoms: _572  and  _575
REMARK  246  A    between atoms: _575  and  _576
REMARK  247  A    between atoms: _576  and  _577
REMARK  248  A    between atoms: _577  and  _578
REMARK                            x       y       z     vdW  Elec       q    Type
REMARK                         _______ _______ _______ _____ _____    ______ ____
ROOT
ATOM      1  O   HOH     1     -13.971   1.971 -17.161  0.00  0.00    +0.000 OA
ENDROOT
TORSDOF 0
