REMARK  Name = ../refined-set-2016/1upf/1upf_pocket.pdb
REMARK  120 active torsions:
REMARK  status: ('A' for Active; 'I' for Inactive)
REMARK    1  A    between atoms: _1  and  _3
REMARK    2  A    between atoms: _3  and  _4
REMARK    3  A    between atoms: _3  and  _6
REMARK    4  A    between atoms: _6  and  _7
REMARK    5  A    between atoms: _10  and  _12
REMARK    6  A    between atoms: _12  and  _13
REMARK    7  A    between atoms: _12  and  _15
REMARK    8  A    between atoms: _15  and  _16
REMARK    9  A    between atoms: _16  and  _17
REMARK   10  A    between atoms: _17  and  _18
REMARK   11  A    between atoms: _27  and  _29
REMARK   12  A    between atoms: _29  and  _30
REMARK   13  A    between atoms: _33  and  _35
REMARK   14  A    between atoms: _35  and  _36
REMARK   15  A    between atoms: _35  and  _38
REMARK   16  A    between atoms: _38  and  _39
REMARK   17  A    between atoms: _39  and  _40
REMARK   18  A    between atoms: _40  and  _41
REMARK   19  A    between atoms: _50  and  _52
REMARK   20  A    between atoms: _52  and  _53
REMARK   21  A    between atoms: _52  and  _55
REMARK   22  A    between atoms: _55  and  _56
REMARK   23  A    between atoms: _60  and  _61
REMARK   24  A    between atoms: _66  and  _68
REMARK   25  A    between atoms: _68  and  _69
REMARK   26  A    between atoms: _68  and  _71
REMARK   27  A    between atoms: _71  and  _72
REMARK   28  A    between atoms: _72  and  _73
REMARK   29  A    between atoms: _75  and  _77
REMARK   30  A    between atoms: _77  and  _78
REMARK   31  A    between atoms: _77  and  _80
REMARK   32  A    between atoms: _82  and  _84
REMARK   33  A    between atoms: _84  and  _85
REMARK   34  A    between atoms: _88  and  _90
REMARK   35  A    between atoms: _90  and  _91
REMARK   36  A    between atoms: _90  and  _93
REMARK   37  A    between atoms: _93  and  _94
REMARK   38  A    between atoms: _97  and  _99
REMARK   39  A    between atoms: _99  and  _100
REMARK   40  A    between atoms: _103  and  _105
REMARK   41  A    between atoms: _105  and  _106
REMARK   42  A    between atoms: _105  and  _108
REMARK   43  A    between atoms: _108  and  _109
REMARK   44  A    between atoms: _111  and  _113
REMARK   45  A    between atoms: _113  and  _114
REMARK   46  A    between atoms: _113  and  _116
REMARK   47  A    between atoms: _116  and  _117
REMARK   48  A    between atoms: _120  and  _122
REMARK   49  A    between atoms: _122  and  _123
REMARK   50  A    between atoms: _126  and  _128
REMARK   51  A    between atoms: _128  and  _129
REMARK   52  A    between atoms: _128  and  _131
REMARK   53  A    between atoms: _131  and  _132
REMARK   54  A    between atoms: _135  and  _137
REMARK   55  A    between atoms: _137  and  _138
REMARK   56  A    between atoms: _137  and  _140
REMARK   57  A    between atoms: _144  and  _145
REMARK   58  A    between atoms: _144  and  _147
REMARK   59  A    between atoms: _147  and  _148
REMARK   60  A    between atoms: _151  and  _153
REMARK   61  A    between atoms: _153  and  _154
REMARK   62  A    between atoms: _153  and  _156
REMARK   63  A    between atoms: _156  and  _157
REMARK   64  A    between atoms: _162  and  _164
REMARK   65  A    between atoms: _164  and  _165
REMARK   66  A    between atoms: _164  and  _167
REMARK   67  A    between atoms: _167  and  _168
REMARK   68  A    between atoms: _168  and  _169
REMARK   69  A    between atoms: _169  and  _170
REMARK   70  A    between atoms: _179  and  _181
REMARK   71  A    between atoms: _181  and  _182
REMARK   72  A    between atoms: _181  and  _184
REMARK   73  A    between atoms: _184  and  _185
REMARK   74  A    between atoms: _190  and  _191
REMARK   75  A    between atoms: _193  and  _195
REMARK   76  A    between atoms: _195  and  _196
REMARK   77  A    between atoms: _195  and  _198
REMARK   78  A    between atoms: _198  and  _199
REMARK   79  A    between atoms: _204  and  _205
REMARK   80  A    between atoms: _207  and  _209
REMARK   81  A    between atoms: _209  and  _210
REMARK   82  A    between atoms: _209  and  _212
REMARK   83  A    between atoms: _212  and  _213
REMARK   84  A    between atoms: _216  and  _218
REMARK   85  A    between atoms: _218  and  _219
REMARK   86  A    between atoms: _218  and  _221
REMARK   87  A    between atoms: _225  and  _226
REMARK   88  A    between atoms: _231  and  _233
REMARK   89  A    between atoms: _233  and  _234
REMARK   90  A    between atoms: _236  and  _238
REMARK   91  A    between atoms: _238  and  _239
REMARK   92  A    between atoms: _238  and  _241
REMARK   93  A    between atoms: _241  and  _242
REMARK   94  A    between atoms: _245  and  _247
REMARK   95  A    between atoms: _247  and  _248
REMARK   96  A    between atoms: _250  and  _252
REMARK   97  A    between atoms: _252  and  _253
REMARK   98  A    between atoms: _252  and  _255
REMARK   99  A    between atoms: _255  and  _256
REMARK  100  A    between atoms: _259  and  _261
REMARK  101  A    between atoms: _261  and  _262
REMARK  102  A    between atoms: _261  and  _264
REMARK  103  A    between atoms: _264  and  _265
REMARK  104  A    between atoms: _271  and  _273
REMARK  105  A    between atoms: _273  and  _274
REMARK  106  A    between atoms: _276  and  _278
REMARK  107  A    between atoms: _278  and  _279
REMARK  108  A    between atoms: _278  and  _281
REMARK  109  A    between atoms: _281  and  _282
REMARK  110  A    between atoms: _285  and  _287
REMARK  111  A    between atoms: _287  and  _288
REMARK  112  A    between atoms: _287  and  _290
REMARK  113  A    between atoms: _290  and  _291
REMARK  114  A    between atoms: _291  and  _292
REMARK  115  A    between atoms: _292  and  _293
REMARK  116  A    between atoms: _302  and  _304
REMARK  117  A    between atoms: _304  and  _305
REMARK  118  A    between atoms: _304  and  _307
REMARK  119  A    between atoms: _307  and  _308
REMARK  120  A    between atoms: _313  and  _314
REMARK                            x       y       z     vdW  Elec       q    Type
REMARK                         _______ _______ _______ _____ _____    ______ ____
ROOT
ATOM      1  CA  LEU A   1      19.865  97.798  49.362  0.00  0.00    +0.133 C 
ENDROOT
BRANCH   1   2
ATOM      2  N   LEU A   1      19.682  96.926  50.500  0.00  0.00    -0.239 NA
ATOM      3  H   LEU A   1      19.080  97.253  51.282  0.00  0.00    +0.142 HD
ENDBRANCH   1   2
BRANCH   1   4
ATOM      4  C   LEU A   1      21.166  98.521  49.666  0.00  0.00    +0.224 C 
ATOM      5  O   LEU A   1      21.649  99.342  48.884  0.00  0.00    -0.287 OA
ENDBRANCH   1   4
BRANCH   1   6
ATOM      6  CB  LEU A   1      18.722  98.796  49.276  0.00  0.00    +0.025 C 
BRANCH   6   7
ATOM      7  CG  LEU A   1      17.530  98.254  48.503  0.00  0.00    +0.002 C 
ATOM      8  CD2 LEU A   1      16.293  98.079  49.382  0.00  0.00    +0.000 C 
ATOM      9  CD1 LEU A   1      17.211  99.132  47.303  0.00  0.00    +0.000 C 
ENDBRANCH   6   7
ENDBRANCH   1   6
TORSDOF 4
REMARK  Name = ../refined-set-2016/1upf/1upf_pocket.pdb
REMARK  120 active torsions:
REMARK  status: ('A' for Active; 'I' for Inactive)
REMARK    1  A    between atoms: _1  and  _3
REMARK    2  A    between atoms: _3  and  _4
REMARK    3  A    between atoms: _3  and  _6
REMARK    4  A    between atoms: _6  and  _7
REMARK    5  A    between atoms: _10  and  _12
REMARK    6  A    between atoms: _12  and  _13
REMARK    7  A    between atoms: _12  and  _15
REMARK    8  A    between atoms: _15  and  _16
REMARK    9  A    between atoms: _16  and  _17
REMARK   10  A    between atoms: _17  and  _18
REMARK   11  A    between atoms: _27  and  _29
REMARK   12  A    between atoms: _29  and  _30
REMARK   13  A    between atoms: _33  and  _35
REMARK   14  A    between atoms: _35  and  _36
REMARK   15  A    between atoms: _35  and  _38
REMARK   16  A    between atoms: _38  and  _39
REMARK   17  A    between atoms: _39  and  _40
REMARK   18  A    between atoms: _40  and  _41
REMARK   19  A    between atoms: _50  and  _52
REMARK   20  A    between atoms: _52  and  _53
REMARK   21  A    between atoms: _52  and  _55
REMARK   22  A    between atoms: _55  and  _56
REMARK   23  A    between atoms: _60  and  _61
REMARK   24  A    between atoms: _66  and  _68
REMARK   25  A    between atoms: _68  and  _69
REMARK   26  A    between atoms: _68  and  _71
REMARK   27  A    between atoms: _71  and  _72
REMARK   28  A    between atoms: _72  and  _73
REMARK   29  A    between atoms: _75  and  _77
REMARK   30  A    between atoms: _77  and  _78
REMARK   31  A    between atoms: _77  and  _80
REMARK   32  A    between atoms: _82  and  _84
REMARK   33  A    between atoms: _84  and  _85
REMARK   34  A    between atoms: _88  and  _90
REMARK   35  A    between atoms: _90  and  _91
REMARK   36  A    between atoms: _90  and  _93
REMARK   37  A    between atoms: _93  and  _94
REMARK   38  A    between atoms: _97  and  _99
REMARK   39  A    between atoms: _99  and  _100
REMARK   40  A    between atoms: _103  and  _105
REMARK   41  A    between atoms: _105  and  _106
REMARK   42  A    between atoms: _105  and  _108
REMARK   43  A    between atoms: _108  and  _109
REMARK   44  A    between atoms: _111  and  _113
REMARK   45  A    between atoms: _113  and  _114
REMARK   46  A    between atoms: _113  and  _116
REMARK   47  A    between atoms: _116  and  _117
REMARK   48  A    between atoms: _120  and  _122
REMARK   49  A    between atoms: _122  and  _123
REMARK   50  A    between atoms: _126  and  _128
REMARK   51  A    between atoms: _128  and  _129
REMARK   52  A    between atoms: _128  and  _131
REMARK   53  A    between atoms: _131  and  _132
REMARK   54  A    between atoms: _135  and  _137
REMARK   55  A    between atoms: _137  and  _138
REMARK   56  A    between atoms: _137  and  _140
REMARK   57  A    between atoms: _144  and  _145
REMARK   58  A    between atoms: _144  and  _147
REMARK   59  A    between atoms: _147  and  _148
REMARK   60  A    between atoms: _151  and  _153
REMARK   61  A    between atoms: _153  and  _154
REMARK   62  A    between atoms: _153  and  _156
REMARK   63  A    between atoms: _156  and  _157
REMARK   64  A    between atoms: _162  and  _164
REMARK   65  A    between atoms: _164  and  _165
REMARK   66  A    between atoms: _164  and  _167
REMARK   67  A    between atoms: _167  and  _168
REMARK   68  A    between atoms: _168  and  _169
REMARK   69  A    between atoms: _169  and  _170
REMARK   70  A    between atoms: _179  and  _181
REMARK   71  A    between atoms: _181  and  _182
REMARK   72  A    between atoms: _181  and  _184
REMARK   73  A    between atoms: _184  and  _185
REMARK   74  A    between atoms: _190  and  _191
REMARK   75  A    between atoms: _193  and  _195
REMARK   76  A    between atoms: _195  and  _196
REMARK   77  A    between atoms: _195  and  _198
REMARK   78  A    between atoms: _198  and  _199
REMARK   79  A    between atoms: _204  and  _205
REMARK   80  A    between atoms: _207  and  _209
REMARK   81  A    between atoms: _209  and  _210
REMARK   82  A    between atoms: _209  and  _212
REMARK   83  A    between atoms: _212  and  _213
REMARK   84  A    between atoms: _216  and  _218
REMARK   85  A    between atoms: _218  and  _219
REMARK   86  A    between atoms: _218  and  _221
REMARK   87  A    between atoms: _225  and  _226
REMARK   88  A    between atoms: _231  and  _233
REMARK   89  A    between atoms: _233  and  _234
REMARK   90  A    between atoms: _236  and  _238
REMARK   91  A    between atoms: _238  and  _239
REMARK   92  A    between atoms: _238  and  _241
REMARK   93  A    between atoms: _241  and  _242
REMARK   94  A    between atoms: _245  and  _247
REMARK   95  A    between atoms: _247  and  _248
REMARK   96  A    between atoms: _250  and  _252
REMARK   97  A    between atoms: _252  and  _253
REMARK   98  A    between atoms: _252  and  _255
REMARK   99  A    between atoms: _255  and  _256
REMARK  100  A    between atoms: _259  and  _261
REMARK  101  A    between atoms: _261  and  _262
REMARK  102  A    between atoms: _261  and  _264
REMARK  103  A    between atoms: _264  and  _265
REMARK  104  A    between atoms: _271  and  _273
REMARK  105  A    between atoms: _273  and  _274
REMARK  106  A    between atoms: _276  and  _278
REMARK  107  A    between atoms: _278  and  _279
REMARK  108  A    between atoms: _278  and  _281
REMARK  109  A    between atoms: _281  and  _282
REMARK  110  A    between atoms: _285  and  _287
REMARK  111  A    between atoms: _287  and  _288
REMARK  112  A    between atoms: _287  and  _290
REMARK  113  A    between atoms: _290  and  _291
REMARK  114  A    between atoms: _291  and  _292
REMARK  115  A    between atoms: _292  and  _293
REMARK  116  A    between atoms: _302  and  _304
REMARK  117  A    between atoms: _304  and  _305
REMARK  118  A    between atoms: _304  and  _307
REMARK  119  A    between atoms: _307  and  _308
REMARK  120  A    between atoms: _313  and  _314
REMARK                            x       y       z     vdW  Elec       q    Type
REMARK                         _______ _______ _______ _____ _____    ______ ____
ROOT
ATOM      1  CB  ARG A   1       4.657  85.071  47.416  0.00  0.00    +0.030 C 
ENDROOT
BRANCH   1   2
ATOM      2  CA  ARG A   1       3.196  85.446  47.558  0.00  0.00    +0.145 C 
BRANCH   2   3
ATOM      3  C   ARG A   1       3.303  86.278  48.803  0.00  0.00    +0.238 C 
ATOM      4  O   ARG A   1       2.824  85.908  49.863  0.00  0.00    -0.274 OA
ATOM      5  N   ALA A   2       4.043  87.376  48.673  0.00  0.00    -0.298 N 
ATOM      6  H   ALA A   2       4.470  87.585  47.748  0.00  0.00    +0.150 HD
BRANCH   5   7
ATOM      7  CA  ALA A   2       4.280  88.302  49.783  0.00  0.00    +0.137 C 
ATOM      8  CB  ALA A   2       4.938  89.597  49.301  0.00  0.00    +0.030 C 
BRANCH   7   9
ATOM      9  C   ALA A   2       3.039  88.579  50.618  0.00  0.00    +0.227 C 
ATOM     10  O   ALA A   2       3.094  88.509  51.829  0.00  0.00    -0.286 OA
ENDBRANCH   7   9
ENDBRANCH   5   7
ENDBRANCH   2   3
BRANCH   2  11
ATOM     11  N   ARG A   1       2.973  86.283  46.375  0.00  0.00    -0.238 NA
ATOM     12  H   ARG A   1       3.831  86.732  45.997  0.00  0.00    +0.142 HD
ENDBRANCH   2  11
ENDBRANCH   1   2
BRANCH   1  13
ATOM     13  CG  ARG A   1       4.958  83.739  47.035  0.00  0.00    +0.045 C 
BRANCH  13  14
ATOM     14  CD  ARG A   1       6.352  83.357  47.556  0.00  0.00    +0.174 C 
BRANCH  14  15
ATOM     15  NE  ARG A   1       7.364  84.400  47.324  0.00  0.00    -0.265 N 
ATOM     16  CZ  ARG A   1       8.678  84.238  47.481  0.00  0.00    +0.342 C 
ATOM     17  NH2 ARG A   1       9.162  83.071  47.887  0.00  0.00    -0.292 N 
ATOM     18 HH21 ARG A   1       8.516  82.280  48.084  0.00  0.00    +0.255 HD
ATOM     19 HH22 ARG A   1      10.187  82.947  48.009  0.00  0.00    +0.255 HD
ATOM     20  NH1 ARG A   1       9.543  85.232  47.256  0.00  0.00    -0.292 N 
ATOM     21 HH11 ARG A   1      10.562  85.074  47.387  0.00  0.00    +0.255 HD
ATOM     22 HH12 ARG A   1       9.197  86.163  46.949  0.00  0.00    +0.255 HD
ATOM     23  HE  ARG A   1       7.029  85.334  47.014  0.00  0.00    +0.259 HD
ENDBRANCH  14  15
ENDBRANCH  13  14
ENDBRANCH   1  13
TORSDOF 8
REMARK  Name = ../refined-set-2016/1upf/1upf_pocket.pdb
REMARK  120 active torsions:
REMARK  status: ('A' for Active; 'I' for Inactive)
REMARK    1  A    between atoms: _1  and  _3
REMARK    2  A    between atoms: _3  and  _4
REMARK    3  A    between atoms: _3  and  _6
REMARK    4  A    between atoms: _6  and  _7
REMARK    5  A    between atoms: _10  and  _12
REMARK    6  A    between atoms: _12  and  _13
REMARK    7  A    between atoms: _12  and  _15
REMARK    8  A    between atoms: _15  and  _16
REMARK    9  A    between atoms: _16  and  _17
REMARK   10  A    between atoms: _17  and  _18
REMARK   11  A    between atoms: _27  and  _29
REMARK   12  A    between atoms: _29  and  _30
REMARK   13  A    between atoms: _33  and  _35
REMARK   14  A    between atoms: _35  and  _36
REMARK   15  A    between atoms: _35  and  _38
REMARK   16  A    between atoms: _38  and  _39
REMARK   17  A    between atoms: _39  and  _40
REMARK   18  A    between atoms: _40  and  _41
REMARK   19  A    between atoms: _50  and  _52
REMARK   20  A    between atoms: _52  and  _53
REMARK   21  A    between atoms: _52  and  _55
REMARK   22  A    between atoms: _55  and  _56
REMARK   23  A    between atoms: _60  and  _61
REMARK   24  A    between atoms: _66  and  _68
REMARK   25  A    between atoms: _68  and  _69
REMARK   26  A    between atoms: _68  and  _71
REMARK   27  A    between atoms: _71  and  _72
REMARK   28  A    between atoms: _72  and  _73
REMARK   29  A    between atoms: _75  and  _77
REMARK   30  A    between atoms: _77  and  _78
REMARK   31  A    between atoms: _77  and  _80
REMARK   32  A    between atoms: _82  and  _84
REMARK   33  A    between atoms: _84  and  _85
REMARK   34  A    between atoms: _88  and  _90
REMARK   35  A    between atoms: _90  and  _91
REMARK   36  A    between atoms: _90  and  _93
REMARK   37  A    between atoms: _93  and  _94
REMARK   38  A    between atoms: _97  and  _99
REMARK   39  A    between atoms: _99  and  _100
REMARK   40  A    between atoms: _103  and  _105
REMARK   41  A    between atoms: _105  and  _106
REMARK   42  A    between atoms: _105  and  _108
REMARK   43  A    between atoms: _108  and  _109
REMARK   44  A    between atoms: _111  and  _113
REMARK   45  A    between atoms: _113  and  _114
REMARK   46  A    between atoms: _113  and  _116
REMARK   47  A    between atoms: _116  and  _117
REMARK   48  A    between atoms: _120  and  _122
REMARK   49  A    between atoms: _122  and  _123
REMARK   50  A    between atoms: _126  and  _128
REMARK   51  A    between atoms: _128  and  _129
REMARK   52  A    between atoms: _128  and  _131
REMARK   53  A    between atoms: _131  and  _132
REMARK   54  A    between atoms: _135  and  _137
REMARK   55  A    between atoms: _137  and  _138
REMARK   56  A    between atoms: _137  and  _140
REMARK   57  A    between atoms: _144  and  _145
REMARK   58  A    between atoms: _144  and  _147
REMARK   59  A    between atoms: _147  and  _148
REMARK   60  A    between atoms: _151  and  _153
REMARK   61  A    between atoms: _153  and  _154
REMARK   62  A    between atoms: _153  and  _156
REMARK   63  A    between atoms: _156  and  _157
REMARK   64  A    between atoms: _162  and  _164
REMARK   65  A    between atoms: _164  and  _165
REMARK   66  A    between atoms: _164  and  _167
REMARK   67  A    between atoms: _167  and  _168
REMARK   68  A    between atoms: _168  and  _169
REMARK   69  A    between atoms: _169  and  _170
REMARK   70  A    between atoms: _179  and  _181
REMARK   71  A    between atoms: _181  and  _182
REMARK   72  A    between atoms: _181  and  _184
REMARK   73  A    between atoms: _184  and  _185
REMARK   74  A    between atoms: _190  and  _191
REMARK   75  A    between atoms: _193  and  _195
REMARK   76  A    between atoms: _195  and  _196
REMARK   77  A    between atoms: _195  and  _198
REMARK   78  A    between atoms: _198  and  _199
REMARK   79  A    between atoms: _204  and  _205
REMARK   80  A    between atoms: _207  and  _209
REMARK   81  A    between atoms: _209  and  _210
REMARK   82  A    between atoms: _209  and  _212
REMARK   83  A    between atoms: _212  and  _213
REMARK   84  A    between atoms: _216  and  _218
REMARK   85  A    between atoms: _218  and  _219
REMARK   86  A    between atoms: _218  and  _221
REMARK   87  A    between atoms: _225  and  _226
REMARK   88  A    between atoms: _231  and  _233
REMARK   89  A    between atoms: _233  and  _234
REMARK   90  A    between atoms: _236  and  _238
REMARK   91  A    between atoms: _238  and  _239
REMARK   92  A    between atoms: _238  and  _241
REMARK   93  A    between atoms: _241  and  _242
REMARK   94  A    between atoms: _245  and  _247
REMARK   95  A    between atoms: _247  and  _248
REMARK   96  A    between atoms: _250  and  _252
REMARK   97  A    between atoms: _252  and  _253
REMARK   98  A    between atoms: _252  and  _255
REMARK   99  A    between atoms: _255  and  _256
REMARK  100  A    between atoms: _259  and  _261
REMARK  101  A    between atoms: _261  and  _262
REMARK  102  A    between atoms: _261  and  _264
REMARK  103  A    between atoms: _264  and  _265
REMARK  104  A    between atoms: _271  and  _273
REMARK  105  A    between atoms: _273  and  _274
REMARK  106  A    between atoms: _276  and  _278
REMARK  107  A    between atoms: _278  and  _279
REMARK  108  A    between atoms: _278  and  _281
REMARK  109  A    between atoms: _281  and  _282
REMARK  110  A    between atoms: _285  and  _287
REMARK  111  A    between atoms: _287  and  _288
REMARK  112  A    between atoms: _287  and  _290
REMARK  113  A    between atoms: _290  and  _291
REMARK  114  A    between atoms: _291  and  _292
REMARK  115  A    between atoms: _292  and  _293
REMARK  116  A    between atoms: _302  and  _304
REMARK  117  A    between atoms: _304  and  _305
REMARK  118  A    between atoms: _304  and  _307
REMARK  119  A    between atoms: _307  and  _308
REMARK  120  A    between atoms: _313  and  _314
REMARK                            x       y       z     vdW  Elec       q    Type
REMARK                         _______ _______ _______ _____ _____    ______ ____
ROOT
ATOM      1  NE  ARG A   1       5.627  94.937  37.766  0.00  0.00    -0.265 N 
ATOM      2  HE  ARG A   1       5.766  94.548  38.720  0.00  0.00    +0.259 HD
ATOM      3  CZ  ARG A   1       5.099  96.157  37.668  0.00  0.00    +0.342 C 
ATOM      4  NH2 ARG A   1       4.798  96.839  38.761  0.00  0.00    -0.292 N 
ATOM      5 HH21 ARG A   1       4.973  96.423  39.698  0.00  0.00    +0.255 HD
ATOM      6 HH22 ARG A   1       4.386  97.791  38.683  0.00  0.00    +0.255 HD
ATOM      7  NH1 ARG A   1       4.892  96.718  36.483  0.00  0.00    -0.292 N 
ATOM      8 HH11 ARG A   1       4.479  97.671  36.424  0.00  0.00    +0.255 HD
ATOM      9 HH12 ARG A   1       5.143  96.205  35.614  0.00  0.00    +0.255 HD
ENDROOT
BRANCH   1  10
ATOM     10  CD  ARG A   1       6.026  94.104  36.628  0.00  0.00    +0.174 C 
BRANCH  10  11
ATOM     11  CG  ARG A   1       5.526  92.699  36.692  0.00  0.00    +0.045 C 
BRANCH  11  12
ATOM     12  CB  ARG A   1       4.623  92.391  35.565  0.00  0.00    +0.029 C 
BRANCH  12  13
ATOM     13  CA  ARG A   1       4.307  90.906  35.427  0.00  0.00    +0.133 C 
BRANCH  13  14
ATOM     14  N   ARG A   1       4.169  90.153  36.640  0.00  0.00    -0.239 NA
ATOM     15  H   ARG A   1       4.855  90.198  37.420  0.00  0.00    +0.142 HD
ENDBRANCH  13  14
BRANCH  13  16
ATOM     16  C   ARG A   1       5.157  90.142  34.417  0.00  0.00    +0.224 C 
ATOM     17  O   ARG A   1       6.127  89.445  34.760  0.00  0.00    -0.287 OA
ENDBRANCH  13  16
ENDBRANCH  12  13
ENDBRANCH  11  12
ENDBRANCH  10  11
ENDBRANCH   1  10
TORSDOF 6
REMARK  Name = ../refined-set-2016/1upf/1upf_pocket.pdb
REMARK  120 active torsions:
REMARK  status: ('A' for Active; 'I' for Inactive)
REMARK    1  A    between atoms: _1  and  _3
REMARK    2  A    between atoms: _3  and  _4
REMARK    3  A    between atoms: _3  and  _6
REMARK    4  A    between atoms: _6  and  _7
REMARK    5  A    between atoms: _10  and  _12
REMARK    6  A    between atoms: _12  and  _13
REMARK    7  A    between atoms: _12  and  _15
REMARK    8  A    between atoms: _15  and  _16
REMARK    9  A    between atoms: _16  and  _17
REMARK   10  A    between atoms: _17  and  _18
REMARK   11  A    between atoms: _27  and  _29
REMARK   12  A    between atoms: _29  and  _30
REMARK   13  A    between atoms: _33  and  _35
REMARK   14  A    between atoms: _35  and  _36
REMARK   15  A    between atoms: _35  and  _38
REMARK   16  A    between atoms: _38  and  _39
REMARK   17  A    between atoms: _39  and  _40
REMARK   18  A    between atoms: _40  and  _41
REMARK   19  A    between atoms: _50  and  _52
REMARK   20  A    between atoms: _52  and  _53
REMARK   21  A    between atoms: _52  and  _55
REMARK   22  A    between atoms: _55  and  _56
REMARK   23  A    between atoms: _60  and  _61
REMARK   24  A    between atoms: _66  and  _68
REMARK   25  A    between atoms: _68  and  _69
REMARK   26  A    between atoms: _68  and  _71
REMARK   27  A    between atoms: _71  and  _72
REMARK   28  A    between atoms: _72  and  _73
REMARK   29  A    between atoms: _75  and  _77
REMARK   30  A    between atoms: _77  and  _78
REMARK   31  A    between atoms: _77  and  _80
REMARK   32  A    between atoms: _82  and  _84
REMARK   33  A    between atoms: _84  and  _85
REMARK   34  A    between atoms: _88  and  _90
REMARK   35  A    between atoms: _90  and  _91
REMARK   36  A    between atoms: _90  and  _93
REMARK   37  A    between atoms: _93  and  _94
REMARK   38  A    between atoms: _97  and  _99
REMARK   39  A    between atoms: _99  and  _100
REMARK   40  A    between atoms: _103  and  _105
REMARK   41  A    between atoms: _105  and  _106
REMARK   42  A    between atoms: _105  and  _108
REMARK   43  A    between atoms: _108  and  _109
REMARK   44  A    between atoms: _111  and  _113
REMARK   45  A    between atoms: _113  and  _114
REMARK   46  A    between atoms: _113  and  _116
REMARK   47  A    between atoms: _116  and  _117
REMARK   48  A    between atoms: _120  and  _122
REMARK   49  A    between atoms: _122  and  _123
REMARK   50  A    between atoms: _126  and  _128
REMARK   51  A    between atoms: _128  and  _129
REMARK   52  A    between atoms: _128  and  _131
REMARK   53  A    between atoms: _131  and  _132
REMARK   54  A    between atoms: _135  and  _137
REMARK   55  A    between atoms: _137  and  _138
REMARK   56  A    between atoms: _137  and  _140
REMARK   57  A    between atoms: _144  and  _145
REMARK   58  A    between atoms: _144  and  _147
REMARK   59  A    between atoms: _147  and  _148
REMARK   60  A    between atoms: _151  and  _153
REMARK   61  A    between atoms: _153  and  _154
REMARK   62  A    between atoms: _153  and  _156
REMARK   63  A    between atoms: _156  and  _157
REMARK   64  A    between atoms: _162  and  _164
REMARK   65  A    between atoms: _164  and  _165
REMARK   66  A    between atoms: _164  and  _167
REMARK   67  A    between atoms: _167  and  _168
REMARK   68  A    between atoms: _168  and  _169
REMARK   69  A    between atoms: _169  and  _170
REMARK   70  A    between atoms: _179  and  _181
REMARK   71  A    between atoms: _181  and  _182
REMARK   72  A    between atoms: _181  and  _184
REMARK   73  A    between atoms: _184  and  _185
REMARK   74  A    between atoms: _190  and  _191
REMARK   75  A    between atoms: _193  and  _195
REMARK   76  A    between atoms: _195  and  _196
REMARK   77  A    between atoms: _195  and  _198
REMARK   78  A    between atoms: _198  and  _199
REMARK   79  A    between atoms: _204  and  _205
REMARK   80  A    between atoms: _207  and  _209
REMARK   81  A    between atoms: _209  and  _210
REMARK   82  A    between atoms: _209  and  _212
REMARK   83  A    between atoms: _212  and  _213
REMARK   84  A    between atoms: _216  and  _218
REMARK   85  A    between atoms: _218  and  _219
REMARK   86  A    between atoms: _218  and  _221
REMARK   87  A    between atoms: _225  and  _226
REMARK   88  A    between atoms: _231  and  _233
REMARK   89  A    between atoms: _233  and  _234
REMARK   90  A    between atoms: _236  and  _238
REMARK   91  A    between atoms: _238  and  _239
REMARK   92  A    between atoms: _238  and  _241
REMARK   93  A    between atoms: _241  and  _242
REMARK   94  A    between atoms: _245  and  _247
REMARK   95  A    between atoms: _247  and  _248
REMARK   96  A    between atoms: _250  and  _252
REMARK   97  A    between atoms: _252  and  _253
REMARK   98  A    between atoms: _252  and  _255
REMARK   99  A    between atoms: _255  and  _256
REMARK  100  A    between atoms: _259  and  _261
REMARK  101  A    between atoms: _261  and  _262
REMARK  102  A    between atoms: _261  and  _264
REMARK  103  A    between atoms: _264  and  _265
REMARK  104  A    between atoms: _271  and  _273
REMARK  105  A    between atoms: _273  and  _274
REMARK  106  A    between atoms: _276  and  _278
REMARK  107  A    between atoms: _278  and  _279
REMARK  108  A    between atoms: _278  and  _281
REMARK  109  A    between atoms: _281  and  _282
REMARK  110  A    between atoms: _285  and  _287
REMARK  111  A    between atoms: _287  and  _288
REMARK  112  A    between atoms: _287  and  _290
REMARK  113  A    between atoms: _290  and  _291
REMARK  114  A    between atoms: _291  and  _292
REMARK  115  A    between atoms: _292  and  _293
REMARK  116  A    between atoms: _302  and  _304
REMARK  117  A    between atoms: _304  and  _305
REMARK  118  A    between atoms: _304  and  _307
REMARK  119  A    between atoms: _307  and  _308
REMARK  120  A    between atoms: _313  and  _314
REMARK                            x       y       z     vdW  Elec       q    Type
REMARK                         _______ _______ _______ _____ _____    ______ ____
ROOT
ATOM      1  C   MET A   3       4.570  97.203  48.851  0.00  0.00    +0.241 C 
ATOM      2  N   CYS A   4       4.756  98.502  48.732  0.00  0.00    -0.296 N 
ATOM      3  H   CYS A   4       5.394  98.987  49.394  0.00  0.00    +0.150 HD
ATOM      4  O   MET A   3       3.806  96.563  48.126  0.00  0.00    -0.273 OA
ENDROOT
BRANCH   2   5
ATOM      5  CA  CYS A   4       4.093  99.266  47.702  0.00  0.00    +0.160 C 
BRANCH   5   6
ATOM      6  C   CYS A   4       5.106 100.217  47.034  0.00  0.00    +0.242 C 
ATOM      7  O   CYS A   4       5.482 101.233  47.574  0.00  0.00    -0.273 OA
ATOM      8  N   ALA A   5       5.617  99.858  45.874  0.00  0.00    -0.297 N 
ATOM      9  H   ALA A   5       5.307  98.981  45.408  0.00  0.00    +0.150 HD
BRANCH   8  10
ATOM     10  CA  ALA A   5       6.631 100.715  45.250  0.00  0.00    +0.149 C 
ATOM     11  CB  ALA A   5       7.692  99.834  44.655  0.00  0.00    +0.031 C 
BRANCH  10  12
ATOM     12  C   ALA A   5       6.006 101.569  44.147  0.00  0.00    +0.241 C 
ATOM     13  O   ALA A   5       5.682 102.747  44.330  0.00  0.00    -0.273 OA
ATOM     14  N   THR A   6       5.822 100.925  43.002  0.00  0.00    -0.295 N 
ATOM     15  H   THR A   6       6.160  99.943  42.942  0.00  0.00    +0.150 HD
BRANCH  14  16
ATOM     16  CA  THR A   6       5.183 101.490  41.826  0.00  0.00    +0.176 C 
BRANCH  16  17
ATOM     17  C   THR A   6       3.625 101.364  41.879  0.00  0.00    +0.243 C 
ATOM     18  N   ALA A   7       3.087 100.524  42.780  0.00  0.00    -0.298 N 
ATOM     19  H   ALA A   7       3.725 100.013  43.423  0.00  0.00    +0.150 HD
ATOM     20  O   THR A   6       2.905 102.063  41.136  0.00  0.00    -0.273 OA
BRANCH  18  21
ATOM     21  CA  ALA A   7       1.622 100.289  42.903  0.00  0.00    +0.137 C 
ATOM     22  CB  ALA A   7       0.830 101.564  43.164  0.00  0.00    +0.030 C 
BRANCH  21  23
ATOM     23  C   ALA A   7       1.111  99.612  41.629  0.00  0.00    +0.227 C 
ATOM     24  O   ALA A   7      -0.123  99.447  41.406  0.00  0.00    -0.286 OA
ENDBRANCH  21  23
ENDBRANCH  18  21
ENDBRANCH  16  17
BRANCH  16  25
ATOM     25  CB  THR A   6       5.710 100.697  40.662  0.00  0.00    +0.137 C 
ATOM     26  CG2 THR A   6       4.603  99.973  39.976  0.00  0.00    +0.034 C 
BRANCH  25  27
ATOM     27  OG1 THR A   6       6.368 101.560  39.761  0.00  0.00    -0.382 OA
ATOM     28  HG1 THR A   6       6.714 101.035  38.996  0.00  0.00    +0.210 HD
ENDBRANCH  25  27
ENDBRANCH  16  25
ENDBRANCH  14  16
ENDBRANCH  10  12
ENDBRANCH   8  10
ENDBRANCH   5   6
BRANCH   5  29
ATOM     29  CB  CYS A   4       2.920 100.013  48.272  0.00  0.00    +0.098 C 
ATOM     30  SG  CYS A   4       2.038 100.725  46.883  0.00  0.00    -0.080 S 
ENDBRANCH   5  29
ENDBRANCH   2   5
BRANCH   1  31
ATOM     31  CA  MET A   3       5.405  96.509  49.913  0.00  0.00    +0.149 C 
BRANCH  31  34
ATOM     32  C   PRO A   2       4.277  95.507  51.736  0.00  0.00    +0.241 C 
ATOM     33  O   PRO A   2       4.636  96.423  52.448  0.00  0.00    -0.273 OA
ATOM     34  N   MET A   3       4.630  95.442  50.479  0.00  0.00    -0.297 N 
ATOM     35  H   MET A   3       4.352  94.627  49.896  0.00  0.00    +0.150 HD
BRANCH  32  38
ATOM     36  C   ASP A   1       1.452  94.046  50.880  0.00  0.00    +0.242 C 
ATOM     37  N   PRO A   2       2.560  93.523  51.433  0.00  0.00    -0.272 N 
ATOM     38  CA  PRO A   2       3.476  94.343  52.285  0.00  0.00    +0.152 C 
ATOM     39  CB  PRO A   2       4.461  93.333  52.895  0.00  0.00    +0.031 C 
ATOM     40  CG  PRO A   2       4.344  92.130  52.040  0.00  0.00    +0.024 C 
ATOM     41  CD  PRO A   2       2.978  92.112  51.367  0.00  0.00    +0.094 C 
ATOM     42  O   ASP A   1       1.157  95.220  51.004  0.00  0.00    -0.273 OA
BRANCH  36  43
ATOM     43  CA  ASP A   1       0.496  93.123  50.121  0.00  0.00    +0.156 C 
BRANCH  43  44
ATOM     44  N   ASP A   1      -0.697  93.139  50.897  0.00  0.00    -0.238 NA
ATOM     45  H   ASP A   1      -0.901  93.939  51.529  0.00  0.00    +0.142 HD
ENDBRANCH  43  44
BRANCH  43  46
ATOM     46  CB  ASP A   1       0.171  93.655  48.732  0.00  0.00    +0.140 C 
BRANCH  46  47
ATOM     47  CG  ASP A   1       1.289  93.381  47.810  0.00  0.00    +0.367 C 
ATOM     48  OD2 ASP A   1       2.159  92.590  48.258  0.00  0.00    -0.246 OA
ATOM     49  OD1 ASP A   1       1.400  94.091  46.797  0.00  0.00    -0.246 OA
ENDBRANCH  46  47
ENDBRANCH  43  46
ENDBRANCH  36  43
ENDBRANCH  32  38
ENDBRANCH  31  34
BRANCH  31  50
ATOM     50  CB  MET A   3       6.615  95.921  49.223  0.00  0.00    +0.041 C 
BRANCH  50  51
ATOM     51  CG  MET A   3       7.443  94.964  50.048  0.00  0.00    +0.060 C 
BRANCH  51  52
ATOM     52  SD  MET A   3       8.642  95.896  51.011  0.00  0.00    -0.139 S 
ATOM     53  CE  MET A   3       7.433  96.590  52.112  0.00  0.00    +0.069 C 
ENDBRANCH  51  52
ENDBRANCH  50  51
ENDBRANCH  31  50
ENDBRANCH   1  31
TORSDOF 21
REMARK  Name = ../refined-set-2016/1upf/1upf_pocket.pdb
REMARK  120 active torsions:
REMARK  status: ('A' for Active; 'I' for Inactive)
REMARK    1  A    between atoms: _1  and  _3
REMARK    2  A    between atoms: _3  and  _4
REMARK    3  A    between atoms: _3  and  _6
REMARK    4  A    between atoms: _6  and  _7
REMARK    5  A    between atoms: _10  and  _12
REMARK    6  A    between atoms: _12  and  _13
REMARK    7  A    between atoms: _12  and  _15
REMARK    8  A    between atoms: _15  and  _16
REMARK    9  A    between atoms: _16  and  _17
REMARK   10  A    between atoms: _17  and  _18
REMARK   11  A    between atoms: _27  and  _29
REMARK   12  A    between atoms: _29  and  _30
REMARK   13  A    between atoms: _33  and  _35
REMARK   14  A    between atoms: _35  and  _36
REMARK   15  A    between atoms: _35  and  _38
REMARK   16  A    between atoms: _38  and  _39
REMARK   17  A    between atoms: _39  and  _40
REMARK   18  A    between atoms: _40  and  _41
REMARK   19  A    between atoms: _50  and  _52
REMARK   20  A    between atoms: _52  and  _53
REMARK   21  A    between atoms: _52  and  _55
REMARK   22  A    between atoms: _55  and  _56
REMARK   23  A    between atoms: _60  and  _61
REMARK   24  A    between atoms: _66  and  _68
REMARK   25  A    between atoms: _68  and  _69
REMARK   26  A    between atoms: _68  and  _71
REMARK   27  A    between atoms: _71  and  _72
REMARK   28  A    between atoms: _72  and  _73
REMARK   29  A    between atoms: _75  and  _77
REMARK   30  A    between atoms: _77  and  _78
REMARK   31  A    between atoms: _77  and  _80
REMARK   32  A    between atoms: _82  and  _84
REMARK   33  A    between atoms: _84  and  _85
REMARK   34  A    between atoms: _88  and  _90
REMARK   35  A    between atoms: _90  and  _91
REMARK   36  A    between atoms: _90  and  _93
REMARK   37  A    between atoms: _93  and  _94
REMARK   38  A    between atoms: _97  and  _99
REMARK   39  A    between atoms: _99  and  _100
REMARK   40  A    between atoms: _103  and  _105
REMARK   41  A    between atoms: _105  and  _106
REMARK   42  A    between atoms: _105  and  _108
REMARK   43  A    between atoms: _108  and  _109
REMARK   44  A    between atoms: _111  and  _113
REMARK   45  A    between atoms: _113  and  _114
REMARK   46  A    between atoms: _113  and  _116
REMARK   47  A    between atoms: _116  and  _117
REMARK   48  A    between atoms: _120  and  _122
REMARK   49  A    between atoms: _122  and  _123
REMARK   50  A    between atoms: _126  and  _128
REMARK   51  A    between atoms: _128  and  _129
REMARK   52  A    between atoms: _128  and  _131
REMARK   53  A    between atoms: _131  and  _132
REMARK   54  A    between atoms: _135  and  _137
REMARK   55  A    between atoms: _137  and  _138
REMARK   56  A    between atoms: _137  and  _140
REMARK   57  A    between atoms: _144  and  _145
REMARK   58  A    between atoms: _144  and  _147
REMARK   59  A    between atoms: _147  and  _148
REMARK   60  A    between atoms: _151  and  _153
REMARK   61  A    between atoms: _153  and  _154
REMARK   62  A    between atoms: _153  and  _156
REMARK   63  A    between atoms: _156  and  _157
REMARK   64  A    between atoms: _162  and  _164
REMARK   65  A    between atoms: _164  and  _165
REMARK   66  A    between atoms: _164  and  _167
REMARK   67  A    between atoms: _167  and  _168
REMARK   68  A    between atoms: _168  and  _169
REMARK   69  A    between atoms: _169  and  _170
REMARK   70  A    between atoms: _179  and  _181
REMARK   71  A    between atoms: _181  and  _182
REMARK   72  A    between atoms: _181  and  _184
REMARK   73  A    between atoms: _184  and  _185
REMARK   74  A    between atoms: _190  and  _191
REMARK   75  A    between atoms: _193  and  _195
REMARK   76  A    between atoms: _195  and  _196
REMARK   77  A    between atoms: _195  and  _198
REMARK   78  A    between atoms: _198  and  _199
REMARK   79  A    between atoms: _204  and  _205
REMARK   80  A    between atoms: _207  and  _209
REMARK   81  A    between atoms: _209  and  _210
REMARK   82  A    between atoms: _209  and  _212
REMARK   83  A    between atoms: _212  and  _213
REMARK   84  A    between atoms: _216  and  _218
REMARK   85  A    between atoms: _218  and  _219
REMARK   86  A    between atoms: _218  and  _221
REMARK   87  A    between atoms: _225  and  _226
REMARK   88  A    between atoms: _231  and  _233
REMARK   89  A    between atoms: _233  and  _234
REMARK   90  A    between atoms: _236  and  _238
REMARK   91  A    between atoms: _238  and  _239
REMARK   92  A    between atoms: _238  and  _241
REMARK   93  A    between atoms: _241  and  _242
REMARK   94  A    between atoms: _245  and  _247
REMARK   95  A    between atoms: _247  and  _248
REMARK   96  A    between atoms: _250  and  _252
REMARK   97  A    between atoms: _252  and  _253
REMARK   98  A    between atoms: _252  and  _255
REMARK   99  A    between atoms: _255  and  _256
REMARK  100  A    between atoms: _259  and  _261
REMARK  101  A    between atoms: _261  and  _262
REMARK  102  A    between atoms: _261  and  _264
REMARK  103  A    between atoms: _264  and  _265
REMARK  104  A    between atoms: _271  and  _273
REMARK  105  A    between atoms: _273  and  _274
REMARK  106  A    between atoms: _276  and  _278
REMARK  107  A    between atoms: _278  and  _279
REMARK  108  A    between atoms: _278  and  _281
REMARK  109  A    between atoms: _281  and  _282
REMARK  110  A    between atoms: _285  and  _287
REMARK  111  A    between atoms: _287  and  _288
REMARK  112  A    between atoms: _287  and  _290
REMARK  113  A    between atoms: _290  and  _291
REMARK  114  A    between atoms: _291  and  _292
REMARK  115  A    between atoms: _292  and  _293
REMARK  116  A    between atoms: _302  and  _304
REMARK  117  A    between atoms: _304  and  _305
REMARK  118  A    between atoms: _304  and  _307
REMARK  119  A    between atoms: _307  and  _308
REMARK  120  A    between atoms: _313  and  _314
REMARK                            x       y       z     vdW  Elec       q    Type
REMARK                         _______ _______ _______ _____ _____    ______ ____
ROOT
ATOM      1  CA  SER A   1       0.549  95.290  40.980  0.00  0.00    +0.163 C 
ENDROOT
BRANCH   1   2
ATOM      2  N   SER A   1       1.351  96.486  40.812  0.00  0.00    -0.237 NA
ATOM      3  H   SER A   1       2.178  96.699  41.405  0.00  0.00    +0.142 HD
ENDBRANCH   1   2
BRANCH   1   4
ATOM      4  C   SER A   1      -0.651  95.397  41.878  0.00  0.00    +0.227 C 
ATOM      5  O   SER A   1      -1.633  94.673  41.715  0.00  0.00    -0.287 OA
ENDBRANCH   1   4
BRANCH   1   6
ATOM      6  CB  SER A   1       1.430  94.171  41.457  0.00  0.00    +0.162 C 
BRANCH   6   7
ATOM      7  OG  SER A   1       2.047  94.676  42.599  0.00  0.00    -0.380 OA
ATOM      8  H   SER A   1       2.652  93.989  42.977  0.00  0.00    +0.211 HD
ENDBRANCH   6   7
ENDBRANCH   1   6
TORSDOF 4
REMARK  Name = ../refined-set-2016/1upf/1upf_pocket.pdb
REMARK  120 active torsions:
REMARK  status: ('A' for Active; 'I' for Inactive)
REMARK    1  A    between atoms: _1  and  _3
REMARK    2  A    between atoms: _3  and  _4
REMARK    3  A    between atoms: _3  and  _6
REMARK    4  A    between atoms: _6  and  _7
REMARK    5  A    between atoms: _10  and  _12
REMARK    6  A    between atoms: _12  and  _13
REMARK    7  A    between atoms: _12  and  _15
REMARK    8  A    between atoms: _15  and  _16
REMARK    9  A    between atoms: _16  and  _17
REMARK   10  A    between atoms: _17  and  _18
REMARK   11  A    between atoms: _27  and  _29
REMARK   12  A    between atoms: _29  and  _30
REMARK   13  A    between atoms: _33  and  _35
REMARK   14  A    between atoms: _35  and  _36
REMARK   15  A    between atoms: _35  and  _38
REMARK   16  A    between atoms: _38  and  _39
REMARK   17  A    between atoms: _39  and  _40
REMARK   18  A    between atoms: _40  and  _41
REMARK   19  A    between atoms: _50  and  _52
REMARK   20  A    between atoms: _52  and  _53
REMARK   21  A    between atoms: _52  and  _55
REMARK   22  A    between atoms: _55  and  _56
REMARK   23  A    between atoms: _60  and  _61
REMARK   24  A    between atoms: _66  and  _68
REMARK   25  A    between atoms: _68  and  _69
REMARK   26  A    between atoms: _68  and  _71
REMARK   27  A    between atoms: _71  and  _72
REMARK   28  A    between atoms: _72  and  _73
REMARK   29  A    between atoms: _75  and  _77
REMARK   30  A    between atoms: _77  and  _78
REMARK   31  A    between atoms: _77  and  _80
REMARK   32  A    between atoms: _82  and  _84
REMARK   33  A    between atoms: _84  and  _85
REMARK   34  A    between atoms: _88  and  _90
REMARK   35  A    between atoms: _90  and  _91
REMARK   36  A    between atoms: _90  and  _93
REMARK   37  A    between atoms: _93  and  _94
REMARK   38  A    between atoms: _97  and  _99
REMARK   39  A    between atoms: _99  and  _100
REMARK   40  A    between atoms: _103  and  _105
REMARK   41  A    between atoms: _105  and  _106
REMARK   42  A    between atoms: _105  and  _108
REMARK   43  A    between atoms: _108  and  _109
REMARK   44  A    between atoms: _111  and  _113
REMARK   45  A    between atoms: _113  and  _114
REMARK   46  A    between atoms: _113  and  _116
REMARK   47  A    between atoms: _116  and  _117
REMARK   48  A    between atoms: _120  and  _122
REMARK   49  A    between atoms: _122  and  _123
REMARK   50  A    between atoms: _126  and  _128
REMARK   51  A    between atoms: _128  and  _129
REMARK   52  A    between atoms: _128  and  _131
REMARK   53  A    between atoms: _131  and  _132
REMARK   54  A    between atoms: _135  and  _137
REMARK   55  A    between atoms: _137  and  _138
REMARK   56  A    between atoms: _137  and  _140
REMARK   57  A    between atoms: _144  and  _145
REMARK   58  A    between atoms: _144  and  _147
REMARK   59  A    between atoms: _147  and  _148
REMARK   60  A    between atoms: _151  and  _153
REMARK   61  A    between atoms: _153  and  _154
REMARK   62  A    between atoms: _153  and  _156
REMARK   63  A    between atoms: _156  and  _157
REMARK   64  A    between atoms: _162  and  _164
REMARK   65  A    between atoms: _164  and  _165
REMARK   66  A    between atoms: _164  and  _167
REMARK   67  A    between atoms: _167  and  _168
REMARK   68  A    between atoms: _168  and  _169
REMARK   69  A    between atoms: _169  and  _170
REMARK   70  A    between atoms: _179  and  _181
REMARK   71  A    between atoms: _181  and  _182
REMARK   72  A    between atoms: _181  and  _184
REMARK   73  A    between atoms: _184  and  _185
REMARK   74  A    between atoms: _190  and  _191
REMARK   75  A    between atoms: _193  and  _195
REMARK   76  A    between atoms: _195  and  _196
REMARK   77  A    between atoms: _195  and  _198
REMARK   78  A    between atoms: _198  and  _199
REMARK   79  A    between atoms: _204  and  _205
REMARK   80  A    between atoms: _207  and  _209
REMARK   81  A    between atoms: _209  and  _210
REMARK   82  A    between atoms: _209  and  _212
REMARK   83  A    between atoms: _212  and  _213
REMARK   84  A    between atoms: _216  and  _218
REMARK   85  A    between atoms: _218  and  _219
REMARK   86  A    between atoms: _218  and  _221
REMARK   87  A    between atoms: _225  and  _226
REMARK   88  A    between atoms: _231  and  _233
REMARK   89  A    between atoms: _233  and  _234
REMARK   90  A    between atoms: _236  and  _238
REMARK   91  A    between atoms: _238  and  _239
REMARK   92  A    between atoms: _238  and  _241
REMARK   93  A    between atoms: _241  and  _242
REMARK   94  A    between atoms: _245  and  _247
REMARK   95  A    between atoms: _247  and  _248
REMARK   96  A    between atoms: _250  and  _252
REMARK   97  A    between atoms: _252  and  _253
REMARK   98  A    between atoms: _252  and  _255
REMARK   99  A    between atoms: _255  and  _256
REMARK  100  A    between atoms: _259  and  _261
REMARK  101  A    between atoms: _261  and  _262
REMARK  102  A    between atoms: _261  and  _264
REMARK  103  A    between atoms: _264  and  _265
REMARK  104  A    between atoms: _271  and  _273
REMARK  105  A    between atoms: _273  and  _274
REMARK  106  A    between atoms: _276  and  _278
REMARK  107  A    between atoms: _278  and  _279
REMARK  108  A    between atoms: _278  and  _281
REMARK  109  A    between atoms: _281  and  _282
REMARK  110  A    between atoms: _285  and  _287
REMARK  111  A    between atoms: _287  and  _288
REMARK  112  A    between atoms: _287  and  _290
REMARK  113  A    between atoms: _290  and  _291
REMARK  114  A    between atoms: _291  and  _292
REMARK  115  A    between atoms: _292  and  _293
REMARK  116  A    between atoms: _302  and  _304
REMARK  117  A    between atoms: _304  and  _305
REMARK  118  A    between atoms: _304  and  _307
REMARK  119  A    between atoms: _307  and  _308
REMARK  120  A    between atoms: _313  and  _314
REMARK                            x       y       z     vdW  Elec       q    Type
REMARK                         _______ _______ _______ _____ _____    ______ ____
ROOT
ATOM      1  CA  LEU A   1       6.020  99.771  53.497  0.00  0.00    +0.133 C 
ENDROOT
BRANCH   1   2
ATOM      2  N   LEU A   1       5.160  98.720  54.006  0.00  0.00    -0.239 NA
ATOM      3  H   LEU A   1       4.910  97.927  53.381  0.00  0.00    +0.142 HD
ENDBRANCH   1   2
BRANCH   1   4
ATOM      4  C   LEU A   1       5.619 100.277  52.097  0.00  0.00    +0.224 C 
ATOM      5  O   LEU A   1       5.399  99.501  51.152  0.00  0.00    -0.287 OA
ENDBRANCH   1   4
BRANCH   1   6
ATOM      6  CB  LEU A   1       7.452  99.220  53.508  0.00  0.00    +0.025 C 
BRANCH   6   7
ATOM      7  CG  LEU A   1       8.640 100.158  53.558  0.00  0.00    +0.002 C 
ATOM      8  CD2 LEU A   1       9.843  99.440  52.943  0.00  0.00    +0.000 C 
ATOM      9  CD1 LEU A   1       8.273 101.432  52.807  0.00  0.00    +0.000 C 
ENDBRANCH   6   7
ENDBRANCH   1   6
TORSDOF 4
REMARK  Name = ../refined-set-2016/1upf/1upf_pocket.pdb
REMARK  120 active torsions:
REMARK  status: ('A' for Active; 'I' for Inactive)
REMARK    1  A    between atoms: _1  and  _3
REMARK    2  A    between atoms: _3  and  _4
REMARK    3  A    between atoms: _3  and  _6
REMARK    4  A    between atoms: _6  and  _7
REMARK    5  A    between atoms: _10  and  _12
REMARK    6  A    between atoms: _12  and  _13
REMARK    7  A    between atoms: _12  and  _15
REMARK    8  A    between atoms: _15  and  _16
REMARK    9  A    between atoms: _16  and  _17
REMARK   10  A    between atoms: _17  and  _18
REMARK   11  A    between atoms: _27  and  _29
REMARK   12  A    between atoms: _29  and  _30
REMARK   13  A    between atoms: _33  and  _35
REMARK   14  A    between atoms: _35  and  _36
REMARK   15  A    between atoms: _35  and  _38
REMARK   16  A    between atoms: _38  and  _39
REMARK   17  A    between atoms: _39  and  _40
REMARK   18  A    between atoms: _40  and  _41
REMARK   19  A    between atoms: _50  and  _52
REMARK   20  A    between atoms: _52  and  _53
REMARK   21  A    between atoms: _52  and  _55
REMARK   22  A    between atoms: _55  and  _56
REMARK   23  A    between atoms: _60  and  _61
REMARK   24  A    between atoms: _66  and  _68
REMARK   25  A    between atoms: _68  and  _69
REMARK   26  A    between atoms: _68  and  _71
REMARK   27  A    between atoms: _71  and  _72
REMARK   28  A    between atoms: _72  and  _73
REMARK   29  A    between atoms: _75  and  _77
REMARK   30  A    between atoms: _77  and  _78
REMARK   31  A    between atoms: _77  and  _80
REMARK   32  A    between atoms: _82  and  _84
REMARK   33  A    between atoms: _84  and  _85
REMARK   34  A    between atoms: _88  and  _90
REMARK   35  A    between atoms: _90  and  _91
REMARK   36  A    between atoms: _90  and  _93
REMARK   37  A    between atoms: _93  and  _94
REMARK   38  A    between atoms: _97  and  _99
REMARK   39  A    between atoms: _99  and  _100
REMARK   40  A    between atoms: _103  and  _105
REMARK   41  A    between atoms: _105  and  _106
REMARK   42  A    between atoms: _105  and  _108
REMARK   43  A    between atoms: _108  and  _109
REMARK   44  A    between atoms: _111  and  _113
REMARK   45  A    between atoms: _113  and  _114
REMARK   46  A    between atoms: _113  and  _116
REMARK   47  A    between atoms: _116  and  _117
REMARK   48  A    between atoms: _120  and  _122
REMARK   49  A    between atoms: _122  and  _123
REMARK   50  A    between atoms: _126  and  _128
REMARK   51  A    between atoms: _128  and  _129
REMARK   52  A    between atoms: _128  and  _131
REMARK   53  A    between atoms: _131  and  _132
REMARK   54  A    between atoms: _135  and  _137
REMARK   55  A    between atoms: _137  and  _138
REMARK   56  A    between atoms: _137  and  _140
REMARK   57  A    between atoms: _144  and  _145
REMARK   58  A    between atoms: _144  and  _147
REMARK   59  A    between atoms: _147  and  _148
REMARK   60  A    between atoms: _151  and  _153
REMARK   61  A    between atoms: _153  and  _154
REMARK   62  A    between atoms: _153  and  _156
REMARK   63  A    between atoms: _156  and  _157
REMARK   64  A    between atoms: _162  and  _164
REMARK   65  A    between atoms: _164  and  _165
REMARK   66  A    between atoms: _164  and  _167
REMARK   67  A    between atoms: _167  and  _168
REMARK   68  A    between atoms: _168  and  _169
REMARK   69  A    between atoms: _169  and  _170
REMARK   70  A    between atoms: _179  and  _181
REMARK   71  A    between atoms: _181  and  _182
REMARK   72  A    between atoms: _181  and  _184
REMARK   73  A    between atoms: _184  and  _185
REMARK   74  A    between atoms: _190  and  _191
REMARK   75  A    between atoms: _193  and  _195
REMARK   76  A    between atoms: _195  and  _196
REMARK   77  A    between atoms: _195  and  _198
REMARK   78  A    between atoms: _198  and  _199
REMARK   79  A    between atoms: _204  and  _205
REMARK   80  A    between atoms: _207  and  _209
REMARK   81  A    between atoms: _209  and  _210
REMARK   82  A    between atoms: _209  and  _212
REMARK   83  A    between atoms: _212  and  _213
REMARK   84  A    between atoms: _216  and  _218
REMARK   85  A    between atoms: _218  and  _219
REMARK   86  A    between atoms: _218  and  _221
REMARK   87  A    between atoms: _225  and  _226
REMARK   88  A    between atoms: _231  and  _233
REMARK   89  A    between atoms: _233  and  _234
REMARK   90  A    between atoms: _236  and  _238
REMARK   91  A    between atoms: _238  and  _239
REMARK   92  A    between atoms: _238  and  _241
REMARK   93  A    between atoms: _241  and  _242
REMARK   94  A    between atoms: _245  and  _247
REMARK   95  A    between atoms: _247  and  _248
REMARK   96  A    between atoms: _250  and  _252
REMARK   97  A    between atoms: _252  and  _253
REMARK   98  A    between atoms: _252  and  _255
REMARK   99  A    between atoms: _255  and  _256
REMARK  100  A    between atoms: _259  and  _261
REMARK  101  A    between atoms: _261  and  _262
REMARK  102  A    between atoms: _261  and  _264
REMARK  103  A    between atoms: _264  and  _265
REMARK  104  A    between atoms: _271  and  _273
REMARK  105  A    between atoms: _273  and  _274
REMARK  106  A    between atoms: _276  and  _278
REMARK  107  A    between atoms: _278  and  _279
REMARK  108  A    between atoms: _278  and  _281
REMARK  109  A    between atoms: _281  and  _282
REMARK  110  A    between atoms: _285  and  _287
REMARK  111  A    between atoms: _287  and  _288
REMARK  112  A    between atoms: _287  and  _290
REMARK  113  A    between atoms: _290  and  _291
REMARK  114  A    between atoms: _291  and  _292
REMARK  115  A    between atoms: _292  and  _293
REMARK  116  A    between atoms: _302  and  _304
REMARK  117  A    between atoms: _304  and  _305
REMARK  118  A    between atoms: _304  and  _307
REMARK  119  A    between atoms: _307  and  _308
REMARK  120  A    between atoms: _313  and  _314
REMARK                            x       y       z     vdW  Elec       q    Type
REMARK                         _______ _______ _______ _____ _____    ______ ____
ROOT
ATOM      1  CA  ALA A   1       6.790 104.717  48.421  0.00  0.00    +0.133 C 
ATOM      2  CB  ALA A   1       7.663 104.276  47.265  0.00  0.00    +0.027 C 
ENDROOT
BRANCH   1   3
ATOM      3  N   ALA A   1       6.040 103.613  48.989  0.00  0.00    -0.239 NA
ATOM      4  H   ALA A   1       5.495 103.008  48.342  0.00  0.00    +0.142 HD
ENDBRANCH   1   3
BRANCH   1   5
ATOM      5  C   ALA A   1       5.731 105.741  48.003  0.00  0.00    +0.224 C 
ATOM      6  O   ALA A   1       4.575 105.427  47.676  0.00  0.00    -0.287 OA
ENDBRANCH   1   5
TORSDOF 2
REMARK  Name = ../refined-set-2016/1upf/1upf_pocket.pdb
REMARK  120 active torsions:
REMARK  status: ('A' for Active; 'I' for Inactive)
REMARK    1  A    between atoms: _1  and  _3
REMARK    2  A    between atoms: _3  and  _4
REMARK    3  A    between atoms: _3  and  _6
REMARK    4  A    between atoms: _6  and  _7
REMARK    5  A    between atoms: _10  and  _12
REMARK    6  A    between atoms: _12  and  _13
REMARK    7  A    between atoms: _12  and  _15
REMARK    8  A    between atoms: _15  and  _16
REMARK    9  A    between atoms: _16  and  _17
REMARK   10  A    between atoms: _17  and  _18
REMARK   11  A    between atoms: _27  and  _29
REMARK   12  A    between atoms: _29  and  _30
REMARK   13  A    between atoms: _33  and  _35
REMARK   14  A    between atoms: _35  and  _36
REMARK   15  A    between atoms: _35  and  _38
REMARK   16  A    between atoms: _38  and  _39
REMARK   17  A    between atoms: _39  and  _40
REMARK   18  A    between atoms: _40  and  _41
REMARK   19  A    between atoms: _50  and  _52
REMARK   20  A    between atoms: _52  and  _53
REMARK   21  A    between atoms: _52  and  _55
REMARK   22  A    between atoms: _55  and  _56
REMARK   23  A    between atoms: _60  and  _61
REMARK   24  A    between atoms: _66  and  _68
REMARK   25  A    between atoms: _68  and  _69
REMARK   26  A    between atoms: _68  and  _71
REMARK   27  A    between atoms: _71  and  _72
REMARK   28  A    between atoms: _72  and  _73
REMARK   29  A    between atoms: _75  and  _77
REMARK   30  A    between atoms: _77  and  _78
REMARK   31  A    between atoms: _77  and  _80
REMARK   32  A    between atoms: _82  and  _84
REMARK   33  A    between atoms: _84  and  _85
REMARK   34  A    between atoms: _88  and  _90
REMARK   35  A    between atoms: _90  and  _91
REMARK   36  A    between atoms: _90  and  _93
REMARK   37  A    between atoms: _93  and  _94
REMARK   38  A    between atoms: _97  and  _99
REMARK   39  A    between atoms: _99  and  _100
REMARK   40  A    between atoms: _103  and  _105
REMARK   41  A    between atoms: _105  and  _106
REMARK   42  A    between atoms: _105  and  _108
REMARK   43  A    between atoms: _108  and  _109
REMARK   44  A    between atoms: _111  and  _113
REMARK   45  A    between atoms: _113  and  _114
REMARK   46  A    between atoms: _113  and  _116
REMARK   47  A    between atoms: _116  and  _117
REMARK   48  A    between atoms: _120  and  _122
REMARK   49  A    between atoms: _122  and  _123
REMARK   50  A    between atoms: _126  and  _128
REMARK   51  A    between atoms: _128  and  _129
REMARK   52  A    between atoms: _128  and  _131
REMARK   53  A    between atoms: _131  and  _132
REMARK   54  A    between atoms: _135  and  _137
REMARK   55  A    between atoms: _137  and  _138
REMARK   56  A    between atoms: _137  and  _140
REMARK   57  A    between atoms: _144  and  _145
REMARK   58  A    between atoms: _144  and  _147
REMARK   59  A    between atoms: _147  and  _148
REMARK   60  A    between atoms: _151  and  _153
REMARK   61  A    between atoms: _153  and  _154
REMARK   62  A    between atoms: _153  and  _156
REMARK   63  A    between atoms: _156  and  _157
REMARK   64  A    between atoms: _162  and  _164
REMARK   65  A    between atoms: _164  and  _165
REMARK   66  A    between atoms: _164  and  _167
REMARK   67  A    between atoms: _167  and  _168
REMARK   68  A    between atoms: _168  and  _169
REMARK   69  A    between atoms: _169  and  _170
REMARK   70  A    between atoms: _179  and  _181
REMARK   71  A    between atoms: _181  and  _182
REMARK   72  A    between atoms: _181  and  _184
REMARK   73  A    between atoms: _184  and  _185
REMARK   74  A    between atoms: _190  and  _191
REMARK   75  A    between atoms: _193  and  _195
REMARK   76  A    between atoms: _195  and  _196
REMARK   77  A    between atoms: _195  and  _198
REMARK   78  A    between atoms: _198  and  _199
REMARK   79  A    between atoms: _204  and  _205
REMARK   80  A    between atoms: _207  and  _209
REMARK   81  A    between atoms: _209  and  _210
REMARK   82  A    between atoms: _209  and  _212
REMARK   83  A    between atoms: _212  and  _213
REMARK   84  A    between atoms: _216  and  _218
REMARK   85  A    between atoms: _218  and  _219
REMARK   86  A    between atoms: _218  and  _221
REMARK   87  A    between atoms: _225  and  _226
REMARK   88  A    between atoms: _231  and  _233
REMARK   89  A    between atoms: _233  and  _234
REMARK   90  A    between atoms: _236  and  _238
REMARK   91  A    between atoms: _238  and  _239
REMARK   92  A    between atoms: _238  and  _241
REMARK   93  A    between atoms: _241  and  _242
REMARK   94  A    between atoms: _245  and  _247
REMARK   95  A    between atoms: _247  and  _248
REMARK   96  A    between atoms: _250  and  _252
REMARK   97  A    between atoms: _252  and  _253
REMARK   98  A    between atoms: _252  and  _255
REMARK   99  A    between atoms: _255  and  _256
REMARK  100  A    between atoms: _259  and  _261
REMARK  101  A    between atoms: _261  and  _262
REMARK  102  A    between atoms: _261  and  _264
REMARK  103  A    between atoms: _264  and  _265
REMARK  104  A    between atoms: _271  and  _273
REMARK  105  A    between atoms: _273  and  _274
REMARK  106  A    between atoms: _276  and  _278
REMARK  107  A    between atoms: _278  and  _279
REMARK  108  A    between atoms: _278  and  _281
REMARK  109  A    between atoms: _281  and  _282
REMARK  110  A    between atoms: _285  and  _287
REMARK  111  A    between atoms: _287  and  _288
REMARK  112  A    between atoms: _287  and  _290
REMARK  113  A    between atoms: _290  and  _291
REMARK  114  A    between atoms: _291  and  _292
REMARK  115  A    between atoms: _292  and  _293
REMARK  116  A    between atoms: _302  and  _304
REMARK  117  A    between atoms: _304  and  _305
REMARK  118  A    between atoms: _304  and  _307
REMARK  119  A    between atoms: _307  and  _308
REMARK  120  A    between atoms: _313  and  _314
REMARK                            x       y       z     vdW  Elec       q    Type
REMARK                         _______ _______ _______ _____ _____    ______ ____
ROOT
ATOM      1  CA  ASP A   1      10.030 105.397  52.391  0.00  0.00    +0.144 C 
ENDROOT
BRANCH   1   2
ATOM      2  N   ASP A   1       8.613 105.078  52.655  0.00  0.00    -0.239 NA
ATOM      3  H   ASP A   1       8.115 104.354  52.098  0.00  0.00    +0.142 HD
ENDBRANCH   1   2
BRANCH   1   4
ATOM      4  C   ASP A   1      10.275 106.619  51.524  0.00  0.00    +0.225 C 
ATOM      5  O   ASP A   1       9.363 107.211  50.992  0.00  0.00    -0.287 OA
ENDBRANCH   1   4
BRANCH   1   6
ATOM      6  CB  ASP A   1      10.898 104.204  51.947  0.00  0.00    +0.139 C 
BRANCH   6   7
ATOM      7  CG  ASP A   1      11.517 103.487  53.117  0.00  0.00    +0.367 C 
ATOM      8  OD2 ASP A   1      11.227 103.960  54.241  0.00  0.00    -0.246 OA
ATOM      9  OD1 ASP A   1      12.262 102.485  52.913  0.00  0.00    -0.246 OA
ENDBRANCH   6   7
ENDBRANCH   1   6
TORSDOF 4
REMARK  Name = ../refined-set-2016/1upf/1upf_pocket.pdb
REMARK  120 active torsions:
REMARK  status: ('A' for Active; 'I' for Inactive)
REMARK    1  A    between atoms: _1  and  _3
REMARK    2  A    between atoms: _3  and  _4
REMARK    3  A    between atoms: _3  and  _6
REMARK    4  A    between atoms: _6  and  _7
REMARK    5  A    between atoms: _10  and  _12
REMARK    6  A    between atoms: _12  and  _13
REMARK    7  A    between atoms: _12  and  _15
REMARK    8  A    between atoms: _15  and  _16
REMARK    9  A    between atoms: _16  and  _17
REMARK   10  A    between atoms: _17  and  _18
REMARK   11  A    between atoms: _27  and  _29
REMARK   12  A    between atoms: _29  and  _30
REMARK   13  A    between atoms: _33  and  _35
REMARK   14  A    between atoms: _35  and  _36
REMARK   15  A    between atoms: _35  and  _38
REMARK   16  A    between atoms: _38  and  _39
REMARK   17  A    between atoms: _39  and  _40
REMARK   18  A    between atoms: _40  and  _41
REMARK   19  A    between atoms: _50  and  _52
REMARK   20  A    between atoms: _52  and  _53
REMARK   21  A    between atoms: _52  and  _55
REMARK   22  A    between atoms: _55  and  _56
REMARK   23  A    between atoms: _60  and  _61
REMARK   24  A    between atoms: _66  and  _68
REMARK   25  A    between atoms: _68  and  _69
REMARK   26  A    between atoms: _68  and  _71
REMARK   27  A    between atoms: _71  and  _72
REMARK   28  A    between atoms: _72  and  _73
REMARK   29  A    between atoms: _75  and  _77
REMARK   30  A    between atoms: _77  and  _78
REMARK   31  A    between atoms: _77  and  _80
REMARK   32  A    between atoms: _82  and  _84
REMARK   33  A    between atoms: _84  and  _85
REMARK   34  A    between atoms: _88  and  _90
REMARK   35  A    between atoms: _90  and  _91
REMARK   36  A    between atoms: _90  and  _93
REMARK   37  A    between atoms: _93  and  _94
REMARK   38  A    between atoms: _97  and  _99
REMARK   39  A    between atoms: _99  and  _100
REMARK   40  A    between atoms: _103  and  _105
REMARK   41  A    between atoms: _105  and  _106
REMARK   42  A    between atoms: _105  and  _108
REMARK   43  A    between atoms: _108  and  _109
REMARK   44  A    between atoms: _111  and  _113
REMARK   45  A    between atoms: _113  and  _114
REMARK   46  A    between atoms: _113  and  _116
REMARK   47  A    between atoms: _116  and  _117
REMARK   48  A    between atoms: _120  and  _122
REMARK   49  A    between atoms: _122  and  _123
REMARK   50  A    between atoms: _126  and  _128
REMARK   51  A    between atoms: _128  and  _129
REMARK   52  A    between atoms: _128  and  _131
REMARK   53  A    between atoms: _131  and  _132
REMARK   54  A    between atoms: _135  and  _137
REMARK   55  A    between atoms: _137  and  _138
REMARK   56  A    between atoms: _137  and  _140
REMARK   57  A    between atoms: _144  and  _145
REMARK   58  A    between atoms: _144  and  _147
REMARK   59  A    between atoms: _147  and  _148
REMARK   60  A    between atoms: _151  and  _153
REMARK   61  A    between atoms: _153  and  _154
REMARK   62  A    between atoms: _153  and  _156
REMARK   63  A    between atoms: _156  and  _157
REMARK   64  A    between atoms: _162  and  _164
REMARK   65  A    between atoms: _164  and  _165
REMARK   66  A    between atoms: _164  and  _167
REMARK   67  A    between atoms: _167  and  _168
REMARK   68  A    between atoms: _168  and  _169
REMARK   69  A    between atoms: _169  and  _170
REMARK   70  A    between atoms: _179  and  _181
REMARK   71  A    between atoms: _181  and  _182
REMARK   72  A    between atoms: _181  and  _184
REMARK   73  A    between atoms: _184  and  _185
REMARK   74  A    between atoms: _190  and  _191
REMARK   75  A    between atoms: _193  and  _195
REMARK   76  A    between atoms: _195  and  _196
REMARK   77  A    between atoms: _195  and  _198
REMARK   78  A    between atoms: _198  and  _199
REMARK   79  A    between atoms: _204  and  _205
REMARK   80  A    between atoms: _207  and  _209
REMARK   81  A    between atoms: _209  and  _210
REMARK   82  A    between atoms: _209  and  _212
REMARK   83  A    between atoms: _212  and  _213
REMARK   84  A    between atoms: _216  and  _218
REMARK   85  A    between atoms: _218  and  _219
REMARK   86  A    between atoms: _218  and  _221
REMARK   87  A    between atoms: _225  and  _226
REMARK   88  A    between atoms: _231  and  _233
REMARK   89  A    between atoms: _233  and  _234
REMARK   90  A    between atoms: _236  and  _238
REMARK   91  A    between atoms: _238  and  _239
REMARK   92  A    between atoms: _238  and  _241
REMARK   93  A    between atoms: _241  and  _242
REMARK   94  A    between atoms: _245  and  _247
REMARK   95  A    between atoms: _247  and  _248
REMARK   96  A    between atoms: _250  and  _252
REMARK   97  A    between atoms: _252  and  _253
REMARK   98  A    between atoms: _252  and  _255
REMARK   99  A    between atoms: _255  and  _256
REMARK  100  A    between atoms: _259  and  _261
REMARK  101  A    between atoms: _261  and  _262
REMARK  102  A    between atoms: _261  and  _264
REMARK  103  A    between atoms: _264  and  _265
REMARK  104  A    between atoms: _271  and  _273
REMARK  105  A    between atoms: _273  and  _274
REMARK  106  A    between atoms: _276  and  _278
REMARK  107  A    between atoms: _278  and  _279
REMARK  108  A    between atoms: _278  and  _281
REMARK  109  A    between atoms: _281  and  _282
REMARK  110  A    between atoms: _285  and  _287
REMARK  111  A    between atoms: _287  and  _288
REMARK  112  A    between atoms: _287  and  _290
REMARK  113  A    between atoms: _290  and  _291
REMARK  114  A    between atoms: _291  and  _292
REMARK  115  A    between atoms: _292  and  _293
REMARK  116  A    between atoms: _302  and  _304
REMARK  117  A    between atoms: _304  and  _305
REMARK  118  A    between atoms: _304  and  _307
REMARK  119  A    between atoms: _307  and  _308
REMARK  120  A    between atoms: _313  and  _314
REMARK                            x       y       z     vdW  Elec       q    Type
REMARK                         _______ _______ _______ _____ _____    ______ ____
ROOT
ATOM      1  C   CYS A   1      12.249 105.533  46.607  0.00  0.00    +0.242 C 
ATOM      2  O   CYS A   1      12.566 104.672  47.445  0.00  0.00    -0.273 OA
ATOM      3  N   LEU A   2      12.346 105.361  45.286  0.00  0.00    -0.283 N 
ATOM      4  CA  LEU A   2      12.846 104.089  44.743  0.00  0.00    +0.081 C 
ATOM      5  H   LEU A   2      12.068 106.128  44.641  0.00  0.00    +0.155 HD
ENDROOT
BRANCH   4   6
ATOM      6  C   LEU A   2      14.028 104.131  43.831  0.00  0.00    +0.256 C 
ATOM      7  N   ASN A   3      14.823 103.091  43.850  0.00  0.00    -0.295 N 
ATOM      8  H   ASN A   3      14.639 102.261  44.449  0.00  0.00    +0.150 HD
ATOM      9  O   LEU A   2      14.265 105.090  43.130  0.00  0.00    -0.269 OA
BRANCH   7  10
ATOM     10  CA  ASN A   3      15.961 103.174  42.991  0.00  0.00    +0.146 C 
BRANCH  10  11
ATOM     11  C   ASN A   3      15.670 102.836  41.543  0.00  0.00    +0.227 C 
ATOM     12  O   ASN A   3      14.529 102.583  41.138  0.00  0.00    -0.286 OA
ENDBRANCH  10  11
BRANCH  10  13
ATOM     13  CB  ASN A   3      17.118 102.334  43.519  0.00  0.00    +0.112 C 
BRANCH  13  14
ATOM     14  CG  ASN A   3      16.763 100.901  43.635  0.00  0.00    +0.222 C 
ATOM     15  ND2 ASN A   3      17.242 100.266  44.692  0.00  0.00    -0.329 N 
ATOM     16 HD21 ASN A   3      17.842 100.772  45.375  0.00  0.00    +0.145 HD
ATOM     17 HD22 ASN A   3      17.018  99.261  44.840  0.00  0.00    +0.145 HD
ATOM     18  OD1 ASN A   3      16.047 100.362  42.789  0.00  0.00    -0.275 OA
ENDBRANCH  13  14
ENDBRANCH  10  13
ENDBRANCH   7  10
ENDBRANCH   4   6
BRANCH   1  19
ATOM     19  CA  CYS A   1      11.789 106.895  47.074  0.00  0.00    +0.157 C 
BRANCH  19  20
ATOM     20  N   CYS A   1      11.995 107.025  48.519  0.00  0.00    -0.237 NA
ATOM     21  H   CYS A   1      12.474 106.265  49.043  0.00  0.00    +0.142 HD
ENDBRANCH  19  20
BRANCH  19  22
ATOM     22  CB  CYS A   1      12.678 107.921  46.373  0.00  0.00    +0.095 C 
ATOM     23  SG  CYS A   1      14.470 107.742  46.714  0.00  0.00    -0.080 S 
ENDBRANCH  19  22
ENDBRANCH   1  19
BRANCH   4  24
ATOM     24  CB  LEU A   2      11.789 103.056  44.332  0.00  0.00    +0.046 C 
BRANCH  24  25
ATOM     25  CG  LEU A   2      10.770 103.439  43.271  0.00  0.00    +0.006 C 
ATOM     26  CD2 LEU A   2       9.380 103.447  43.897  0.00  0.00    +0.000 C 
ATOM     27  CD1 LEU A   2      11.199 104.813  42.808  0.00  0.00    +0.000 C 
ENDBRANCH  24  25
ENDBRANCH   4  24
TORSDOF 10
REMARK  Name = ../refined-set-2016/1upf/1upf_pocket.pdb
REMARK  120 active torsions:
REMARK  status: ('A' for Active; 'I' for Inactive)
REMARK    1  A    between atoms: _1  and  _3
REMARK    2  A    between atoms: _3  and  _4
REMARK    3  A    between atoms: _3  and  _6
REMARK    4  A    between atoms: _6  and  _7
REMARK    5  A    between atoms: _10  and  _12
REMARK    6  A    between atoms: _12  and  _13
REMARK    7  A    between atoms: _12  and  _15
REMARK    8  A    between atoms: _15  and  _16
REMARK    9  A    between atoms: _16  and  _17
REMARK   10  A    between atoms: _17  and  _18
REMARK   11  A    between atoms: _27  and  _29
REMARK   12  A    between atoms: _29  and  _30
REMARK   13  A    between atoms: _33  and  _35
REMARK   14  A    between atoms: _35  and  _36
REMARK   15  A    between atoms: _35  and  _38
REMARK   16  A    between atoms: _38  and  _39
REMARK   17  A    between atoms: _39  and  _40
REMARK   18  A    between atoms: _40  and  _41
REMARK   19  A    between atoms: _50  and  _52
REMARK   20  A    between atoms: _52  and  _53
REMARK   21  A    between atoms: _52  and  _55
REMARK   22  A    between atoms: _55  and  _56
REMARK   23  A    between atoms: _60  and  _61
REMARK   24  A    between atoms: _66  and  _68
REMARK   25  A    between atoms: _68  and  _69
REMARK   26  A    between atoms: _68  and  _71
REMARK   27  A    between atoms: _71  and  _72
REMARK   28  A    between atoms: _72  and  _73
REMARK   29  A    between atoms: _75  and  _77
REMARK   30  A    between atoms: _77  and  _78
REMARK   31  A    between atoms: _77  and  _80
REMARK   32  A    between atoms: _82  and  _84
REMARK   33  A    between atoms: _84  and  _85
REMARK   34  A    between atoms: _88  and  _90
REMARK   35  A    between atoms: _90  and  _91
REMARK   36  A    between atoms: _90  and  _93
REMARK   37  A    between atoms: _93  and  _94
REMARK   38  A    between atoms: _97  and  _99
REMARK   39  A    between atoms: _99  and  _100
REMARK   40  A    between atoms: _103  and  _105
REMARK   41  A    between atoms: _105  and  _106
REMARK   42  A    between atoms: _105  and  _108
REMARK   43  A    between atoms: _108  and  _109
REMARK   44  A    between atoms: _111  and  _113
REMARK   45  A    between atoms: _113  and  _114
REMARK   46  A    between atoms: _113  and  _116
REMARK   47  A    between atoms: _116  and  _117
REMARK   48  A    between atoms: _120  and  _122
REMARK   49  A    between atoms: _122  and  _123
REMARK   50  A    between atoms: _126  and  _128
REMARK   51  A    between atoms: _128  and  _129
REMARK   52  A    between atoms: _128  and  _131
REMARK   53  A    between atoms: _131  and  _132
REMARK   54  A    between atoms: _135  and  _137
REMARK   55  A    between atoms: _137  and  _138
REMARK   56  A    between atoms: _137  and  _140
REMARK   57  A    between atoms: _144  and  _145
REMARK   58  A    between atoms: _144  and  _147
REMARK   59  A    between atoms: _147  and  _148
REMARK   60  A    between atoms: _151  and  _153
REMARK   61  A    between atoms: _153  and  _154
REMARK   62  A    between atoms: _153  and  _156
REMARK   63  A    between atoms: _156  and  _157
REMARK   64  A    between atoms: _162  and  _164
REMARK   65  A    between atoms: _164  and  _165
REMARK   66  A    between atoms: _164  and  _167
REMARK   67  A    between atoms: _167  and  _168
REMARK   68  A    between atoms: _168  and  _169
REMARK   69  A    between atoms: _169  and  _170
REMARK   70  A    between atoms: _179  and  _181
REMARK   71  A    between atoms: _181  and  _182
REMARK   72  A    between atoms: _181  and  _184
REMARK   73  A    between atoms: _184  and  _185
REMARK   74  A    between atoms: _190  and  _191
REMARK   75  A    between atoms: _193  and  _195
REMARK   76  A    between atoms: _195  and  _196
REMARK   77  A    between atoms: _195  and  _198
REMARK   78  A    between atoms: _198  and  _199
REMARK   79  A    between atoms: _204  and  _205
REMARK   80  A    between atoms: _207  and  _209
REMARK   81  A    between atoms: _209  and  _210
REMARK   82  A    between atoms: _209  and  _212
REMARK   83  A    between atoms: _212  and  _213
REMARK   84  A    between atoms: _216  and  _218
REMARK   85  A    between atoms: _218  and  _219
REMARK   86  A    between atoms: _218  and  _221
REMARK   87  A    between atoms: _225  and  _226
REMARK   88  A    between atoms: _231  and  _233
REMARK   89  A    between atoms: _233  and  _234
REMARK   90  A    between atoms: _236  and  _238
REMARK   91  A    between atoms: _238  and  _239
REMARK   92  A    between atoms: _238  and  _241
REMARK   93  A    between atoms: _241  and  _242
REMARK   94  A    between atoms: _245  and  _247
REMARK   95  A    between atoms: _247  and  _248
REMARK   96  A    between atoms: _250  and  _252
REMARK   97  A    between atoms: _252  and  _253
REMARK   98  A    between atoms: _252  and  _255
REMARK   99  A    between atoms: _255  and  _256
REMARK  100  A    between atoms: _259  and  _261
REMARK  101  A    between atoms: _261  and  _262
REMARK  102  A    between atoms: _261  and  _264
REMARK  103  A    between atoms: _264  and  _265
REMARK  104  A    between atoms: _271  and  _273
REMARK  105  A    between atoms: _273  and  _274
REMARK  106  A    between atoms: _276  and  _278
REMARK  107  A    between atoms: _278  and  _279
REMARK  108  A    between atoms: _278  and  _281
REMARK  109  A    between atoms: _281  and  _282
REMARK  110  A    between atoms: _285  and  _287
REMARK  111  A    between atoms: _287  and  _288
REMARK  112  A    between atoms: _287  and  _290
REMARK  113  A    between atoms: _290  and  _291
REMARK  114  A    between atoms: _291  and  _292
REMARK  115  A    between atoms: _292  and  _293
REMARK  116  A    between atoms: _302  and  _304
REMARK  117  A    between atoms: _304  and  _305
REMARK  118  A    between atoms: _304  and  _307
REMARK  119  A    between atoms: _307  and  _308
REMARK  120  A    between atoms: _313  and  _314
REMARK                            x       y       z     vdW  Elec       q    Type
REMARK                         _______ _______ _______ _____ _____    ______ ____
ROOT
ATOM      1  CA  ILE A   8      13.664  96.298  53.298  0.00  0.00    +0.149 C 
ENDROOT
BRANCH   1   2
ATOM      2  C   ILE A   8      14.278  95.168  52.505  0.00  0.00    +0.241 C 
ATOM      3  O   ILE A   8      14.746  94.177  53.074  0.00  0.00    -0.273 OA
ATOM      4  N   GLY A   9      14.282  95.293  51.179  0.00  0.00    -0.295 N 
ATOM      5  H   GLY A   9      13.876  96.145  50.742  0.00  0.00    +0.150 HD
BRANCH   4   6
ATOM      6  CA  GLY A   9      14.853  94.241  50.327  0.00  0.00    +0.176 C 
BRANCH   6   7
ATOM      7  C   GLY A   9      13.678  93.509  49.738  0.00  0.00    +0.243 C 
ATOM      8  O   GLY A   9      12.599  94.110  49.527  0.00  0.00    -0.273 OA
ATOM      9  N   ASP A  10      13.848  92.210  49.486  0.00  0.00    -0.296 N 
ATOM     10  H   ASP A  10      14.757  91.739  49.668  0.00  0.00    +0.150 HD
BRANCH   9  11
ATOM     11  CA  ASP A  10      12.716  91.481  48.949  0.00  0.00    +0.160 C 
BRANCH  11  12
ATOM     12  C   ASP A  10      12.006  90.800  50.086  0.00  0.00    +0.241 C 
ATOM     13  N   PHE A  11      10.936  91.462  50.503  0.00  0.00    -0.297 N 
ATOM     14  H   PHE A  11      10.657  92.344  50.028  0.00  0.00    +0.150 HD
ATOM     15  O   ASP A  10      12.363  89.695  50.490  0.00  0.00    -0.273 OA
BRANCH  13  16
ATOM     16  CA  PHE A  11      10.159  90.968  51.608  0.00  0.00    +0.153 C 
BRANCH  16  17
ATOM     17  C   PHE A  11       9.763  89.529  51.480  0.00  0.00    +0.241 C 
ATOM     18  O   PHE A  11       9.990  88.749  52.386  0.00  0.00    -0.273 OA
ATOM     19  N   GLY A  12       9.162  89.182  50.358  0.00  0.00    -0.295 N 
ATOM     20  H   GLY A  12       8.984  89.888  49.615  0.00  0.00    +0.150 HD
BRANCH  19  21
ATOM     21  CA  GLY A  12       8.755  87.810  50.175  0.00  0.00    +0.176 C 
BRANCH  21  22
ATOM     22  C   GLY A  12       9.940  86.884  50.320  0.00  0.00    +0.243 C 
ATOM     23  O   GLY A  12       9.807  85.802  50.909  0.00  0.00    -0.273 OA
ATOM     24  N   ASP A  13      11.091  87.270  49.760  0.00  0.00    -0.296 N 
ATOM     25  H   ASP A  13      11.167  88.200  49.300  0.00  0.00    +0.150 HD
BRANCH  24  26
ATOM     26  CA  ASP A  13      12.251  86.360  49.803  0.00  0.00    +0.160 C 
BRANCH  26  27
ATOM     27  C   ASP A  13      12.807  86.189  51.204  0.00  0.00    +0.241 C 
ATOM     28  N   ARG A  14      12.804  87.269  51.977  0.00  0.00    -0.297 N 
ATOM     29  H   ARG A  14      12.427  88.158  51.591  0.00  0.00    +0.150 HD
ATOM     30  O   ASP A  13      13.212  85.121  51.570  0.00  0.00    -0.273 OA
BRANCH  28  31
ATOM     31  CA  ARG A  14      13.308  87.258  53.344  0.00  0.00    +0.149 C 
BRANCH  31  32
ATOM     32  C   ARG A  14      12.299  86.613  54.247  0.00  0.00    +0.241 C 
ATOM     33  O   ARG A  14      12.664  85.910  55.142  0.00  0.00    -0.273 OA
ATOM     34  N   TYR A  15      11.016  86.822  54.007  0.00  0.00    -0.298 N 
ATOM     35  H   TYR A  15      10.717  87.469  53.249  0.00  0.00    +0.150 HD
BRANCH  34  36
ATOM     36  CA  TYR A  15      10.033  86.132  54.821  0.00  0.00    +0.141 C 
BRANCH  36  37
ATOM     37  C   TYR A  15       9.972  84.604  54.635  0.00  0.00    +0.227 C 
ATOM     38  O   TYR A  15       9.936  83.835  55.614  0.00  0.00    -0.286 OA
ENDBRANCH  36  37
BRANCH  36  39
ATOM     39  CB  TYR A  15       8.654  86.724  54.611  0.00  0.00    +0.054 C 
BRANCH  39  40
ATOM     40  CG  TYR A  15       7.681  86.267  55.662  0.00  0.00    -0.020 A 
ATOM     41  CD2 TYR A  15       7.549  86.965  56.868  0.00  0.00    -0.001 A 
ATOM     42  CE2 TYR A  15       6.627  86.545  57.815  0.00  0.00    +0.036 A 
ATOM     43  CZ  TYR A  15       5.868  85.410  57.587  0.00  0.00    +0.134 A 
ATOM     44  CE1 TYR A  15       5.991  84.706  56.403  0.00  0.00    +0.036 A 
ATOM     45  CD1 TYR A  15       6.899  85.134  55.448  0.00  0.00    -0.001 A 
BRANCH  43  46
ATOM     46  OH  TYR A  15       5.018  84.963  58.565  0.00  0.00    -0.506 OA
ATOM     47  HH  TYR A  15       5.052  85.580  59.338  0.00  0.00    +0.292 HD
ENDBRANCH  43  46
ENDBRANCH  39  40
ENDBRANCH  36  39
ENDBRANCH  34  36
ENDBRANCH  31  32
BRANCH  31  48
ATOM     48  CB  ARG A  14      13.657  88.663  53.819  0.00  0.00    +0.033 C 
BRANCH  48  49
ATOM     49  CG  ARG A  14      14.841  89.214  53.026  0.00  0.00    +0.045 C 
BRANCH  49  50
ATOM     50  CD  ARG A  14      15.191  90.586  53.462  0.00  0.00    +0.174 C 
BRANCH  50  51
ATOM     51  NE  ARG A  14      15.867  90.486  54.738  0.00  0.00    -0.265 N 
ATOM     52  CZ  ARG A  14      16.073  91.499  55.562  0.00  0.00    +0.342 C 
ATOM     53  NH2 ARG A  14      16.699  91.269  56.703  0.00  0.00    -0.292 N 
ATOM     54 HH21 ARG A  14      16.873  92.050  57.367  0.00  0.00    +0.255 HD
ATOM     55 HH22 ARG A  14      17.018  90.307  56.936  0.00  0.00    +0.255 HD
ATOM     56  NH1 ARG A  14      15.646  92.714  55.257  0.00  0.00    -0.292 N 
ATOM     57 HH11 ARG A  14      15.813  93.504  55.913  0.00  0.00    +0.255 HD
ATOM     58 HH12 ARG A  14      15.143  92.879  54.362  0.00  0.00    +0.255 HD
ATOM     59  HE  ARG A  14      16.216  89.550  55.027  0.00  0.00    +0.259 HD
ENDBRANCH  50  51
ENDBRANCH  49  50
ENDBRANCH  48  49
ENDBRANCH  31  48
ENDBRANCH  28  31
ENDBRANCH  26  27
BRANCH  26  60
ATOM     60  CB  ASP A  13      13.342  86.779  48.838  0.00  0.00    +0.143 C 
BRANCH  60  61
ATOM     61  CG  ASP A  13      13.154  86.231  47.414  0.00  0.00    +0.367 C 
ATOM     62  OD2 ASP A  13      12.533  85.162  47.178  0.00  0.00    -0.246 OA
ATOM     63  OD1 ASP A  13      13.803  86.825  46.520  0.00  0.00    -0.246 OA
ENDBRANCH  60  61
ENDBRANCH  26  60
ENDBRANCH  24  26
ENDBRANCH  21  22
ENDBRANCH  19  21
ENDBRANCH  16  17
BRANCH  16  64
ATOM     64  CB  PHE A  11       8.964  91.843  51.836  0.00  0.00    +0.055 C 
BRANCH  64  65
ATOM     65  CG  PHE A  11       8.277  91.522  53.106  0.00  0.00    -0.020 A 
ATOM     66  CD2 PHE A  11       8.434  92.350  54.201  0.00  0.00    -0.004 A 
ATOM     67  CE2 PHE A  11       7.800  92.040  55.390  0.00  0.00    -0.000 A 
ATOM     68  CZ  PHE A  11       7.017  90.899  55.493  0.00  0.00    -0.000 A 
ATOM     69  CE1 PHE A  11       6.874  90.053  54.404  0.00  0.00    -0.000 A 
ATOM     70  CD1 PHE A  11       7.522  90.343  53.228  0.00  0.00    -0.004 A 
ENDBRANCH  64  65
ENDBRANCH  16  64
ENDBRANCH  13  16
ENDBRANCH  11  12
BRANCH  11  71
ATOM     71  CB  ASP A  10      12.988  90.420  47.893  0.00  0.00    +0.143 C 
BRANCH  71  72
ATOM     72  CG  ASP A  10      11.686  90.073  47.135  0.00  0.00    +0.367 C 
ATOM     73  OD2 ASP A  10      10.867  89.187  47.594  0.00  0.00    -0.246 OA
ATOM     74  OD1 ASP A  10      11.367  90.885  46.217  0.00  0.00    -0.246 OA
ENDBRANCH  71  72
ENDBRANCH  11  71
ENDBRANCH   9  11
ENDBRANCH   6   7
ENDBRANCH   4   6
ENDBRANCH   1   2
BRANCH   1  77
ATOM     75  C   GLY A   7      13.885  98.740  53.115  0.00  0.00    +0.243 C 
ATOM     76  O   GLY A   7      14.428  98.865  54.226  0.00  0.00    -0.273 OA
ATOM     77  N   ILE A   8      13.541  97.563  52.587  0.00  0.00    -0.297 N 
ATOM     78  H   ILE A   8      13.166  97.549  51.617  0.00  0.00    +0.150 HD
BRANCH  75  79
ATOM     79  CA  GLY A   7      13.527  99.957  52.261  0.00  0.00    +0.176 C 
BRANCH  79  81
ATOM     80  C   PRO A   6      15.555 101.346  52.194  0.00  0.00    +0.241 C 
ATOM     81  N   GLY A   7      14.237 101.241  52.322  0.00  0.00    -0.295 N 
ATOM     82  H   GLY A   7      13.682 102.108  52.472  0.00  0.00    +0.150 HD
ATOM     83  O   PRO A   6      16.301 100.379  52.068  0.00  0.00    -0.273 OA
BRANCH  80  89
ATOM     84  C   VAL A   5      14.597 103.929  50.621  0.00  0.00    +0.244 C 
ATOM     85  N   PRO A   6      15.188 103.835  51.812  0.00  0.00    -0.272 N 
ATOM     86  CD  PRO A   6      14.841 104.654  52.987  0.00  0.00    +0.094 C 
ATOM     87  CG  PRO A   6      15.558 103.970  54.107  0.00  0.00    +0.024 C 
ATOM     88  CB  PRO A   6      16.652 103.160  53.516  0.00  0.00    +0.031 C 
ATOM     89  CA  PRO A   6      16.113 102.753  52.154  0.00  0.00    +0.152 C 
ATOM     90  O   VAL A   5      13.815 104.826  50.288  0.00  0.00    -0.273 OA
BRANCH  84  91
ATOM     91  CA  VAL A   5      14.906 102.807  49.684  0.00  0.00    +0.149 C 
BRANCH  91  94
ATOM     92  C   ILE A   4      13.437 101.248  48.579  0.00  0.00    +0.241 C 
ATOM     93  O   ILE A   4      14.061 100.241  48.950  0.00  0.00    -0.273 OA
ATOM     94  N   VAL A   5      13.735 102.498  48.907  0.00  0.00    -0.297 N 
ATOM     95  H   VAL A   5      13.110 103.270  48.597  0.00  0.00    +0.150 HD
BRANCH  92  96
ATOM     96  CA  ILE A   4      12.227 101.134  47.717  0.00  0.00    +0.149 C 
BRANCH  96  98
ATOM     97  C   TYR A   3      13.243 100.210  45.712  0.00  0.00    +0.241 C 
ATOM     98  N   ILE A   4      12.452 100.063  46.768  0.00  0.00    -0.297 N 
ATOM     99  H   ILE A   4      11.979  99.149  46.919  0.00  0.00    +0.150 HD
ATOM    100  O   TYR A   3      13.837 101.265  45.421  0.00  0.00    -0.273 OA
BRANCH  97 101
ATOM    101  CA  TYR A   3      13.327  98.991  44.810  0.00  0.00    +0.153 C 
BRANCH 101 103
ATOM    102  C   TYR A   2      12.246  99.690  42.744  0.00  0.00    +0.241 C 
ATOM    103  N   TYR A   3      13.330  99.531  43.476  0.00  0.00    -0.297 N 
ATOM    104  H   TYR A   3      14.243  99.813  43.065  0.00  0.00    +0.150 HD
ATOM    105  O   TYR A   2      11.139  99.378  43.120  0.00  0.00    -0.273 OA
BRANCH 102 106
ATOM    106  CA  TYR A   2      12.460 100.283  41.371  0.00  0.00    +0.153 C 
BRANCH 106 108
ATOM    107  C   ARG A   1      14.319  98.940  40.501  0.00  0.00    +0.238 C 
ATOM    108  N   TYR A   2      13.832 100.126  40.841  0.00  0.00    -0.297 N 
ATOM    109  H   TYR A   2      14.431 100.969  40.732  0.00  0.00    +0.150 HD
ATOM    110  O   ARG A   1      13.616  97.926  40.579  0.00  0.00    -0.274 OA
BRANCH 107 111
ATOM    111  CA  ARG A   1      15.750  98.920  39.908  0.00  0.00    +0.145 C 
BRANCH 111 112
ATOM    112  N   ARG A   1      16.381 100.243  40.014  0.00  0.00    -0.238 NA
ATOM    113  H   ARG A   1      17.083 100.411  40.763  0.00  0.00    +0.142 HD
ENDBRANCH 111 112
BRANCH 111 114
ATOM    114  CB  ARG A   1      16.655  97.834  40.500  0.00  0.00    +0.030 C 
BRANCH 114 115
ATOM    115  CG  ARG A   1      16.613  96.432  39.840  0.00  0.00    +0.045 C 
BRANCH 115 116
ATOM    116  CD  ARG A   1      15.269  95.748  40.147  0.00  0.00    +0.174 C 
BRANCH 116 117
ATOM    117  NE  ARG A   1      15.118  94.327  39.823  0.00  0.00    -0.265 N 
ATOM    118  CZ  ARG A   1      13.962  93.666  39.963  0.00  0.00    +0.342 C 
ATOM    119  NH2 ARG A   1      12.878  94.303  40.423  0.00  0.00    -0.292 N 
ATOM    120 HH21 ARG A   1      12.934  95.311  40.672  0.00  0.00    +0.255 HD
ATOM    121 HH22 ARG A   1      11.980  93.790  40.532  0.00  0.00    +0.255 HD
ATOM    122  NH1 ARG A   1      13.879  92.369  39.662  0.00  0.00    -0.292 N 
ATOM    123 HH11 ARG A   1      12.976  91.866  39.775  0.00  0.00    +0.255 HD
ATOM    124 HH12 ARG A   1      14.717  91.861  39.315  0.00  0.00    +0.255 HD
ATOM    125  HE  ARG A   1      15.947  93.808  39.468  0.00  0.00    +0.259 HD
ENDBRANCH 116 117
ENDBRANCH 115 116
ENDBRANCH 114 115
ENDBRANCH 111 114
ENDBRANCH 107 111
ENDBRANCH 106 108
BRANCH 106 126
ATOM    126  CB  TYR A   2      11.394  99.728  40.412  0.00  0.00    +0.055 C 
BRANCH 126 127
ATOM    127  CG  TYR A   2      11.655  99.964  38.933  0.00  0.00    -0.020 A 
ATOM    128  CD2 TYR A   2      11.078 101.044  38.265  0.00  0.00    -0.001 A 
ATOM    129  CE2 TYR A   2      11.317 101.254  36.918  0.00  0.00    +0.036 A 
ATOM    130  CZ  TYR A   2      12.144 100.373  36.227  0.00  0.00    +0.134 A 
ATOM    131  CE1 TYR A   2      12.734  99.306  36.876  0.00  0.00    +0.036 A 
ATOM    132  CD1 TYR A   2      12.469  99.099  38.204  0.00  0.00    -0.001 A 
BRANCH 130 133
ATOM    133  OH  TYR A   2      12.413 100.561  34.878  0.00  0.00    -0.506 OA
ATOM    134  HH  TYR A   2      13.015  99.842  34.559  0.00  0.00    +0.292 HD
ENDBRANCH 130 133
ENDBRANCH 126 127
ENDBRANCH 106 126
ENDBRANCH 102 106
ENDBRANCH 101 103
BRANCH 101 135
ATOM    135  CB  TYR A   3      14.594  98.169  45.051  0.00  0.00    +0.055 C 
BRANCH 135 136
ATOM    136  CG  TYR A   3      14.370  96.719  44.689  0.00  0.00    -0.020 A 
ATOM    137  CD2 TYR A   3      13.932  95.803  45.652  0.00  0.00    -0.001 A 
ATOM    138  CE2 TYR A   3      13.634  94.488  45.304  0.00  0.00    +0.036 A 
ATOM    139  CZ  TYR A   3      13.772  94.073  43.984  0.00  0.00    +0.134 A 
ATOM    140  CE1 TYR A   3      14.247  94.964  43.029  0.00  0.00    +0.036 A 
ATOM    141  CD1 TYR A   3      14.537  96.280  43.383  0.00  0.00    -0.001 A 
BRANCH 139 142
ATOM    142  OH  TYR A   3      13.502  92.768  43.646  0.00  0.00    -0.506 OA
ATOM    143  HH  TYR A   3      13.649  92.643  42.675  0.00  0.00    +0.292 HD
ENDBRANCH 139 142
ENDBRANCH 135 136
ENDBRANCH 101 135
ENDBRANCH  97 101
ENDBRANCH  96  98
BRANCH  96 144
ATOM    144  CB  ILE A   4      11.091 100.842  48.634  0.00  0.00    +0.027 C 
ATOM    145  CG2 ILE A   4      10.988 101.964  49.666  0.00  0.00    +0.002 C 
BRANCH 144 146
ATOM    146  CG1 ILE A   4       9.838 100.643  47.803  0.00  0.00    +0.002 C 
ATOM    147  CD1 ILE A   4       8.649 100.027  48.536  0.00  0.00    +0.000 C 
ENDBRANCH 144 146
ENDBRANCH  96 144
ENDBRANCH  92  96
ENDBRANCH  91  94
BRANCH  91 148
ATOM    148  CB  VAL A   5      16.048 103.220  48.746  0.00  0.00    +0.027 C 
ATOM    149  CG2 VAL A   5      15.621 104.466  47.992  0.00  0.00    +0.002 C 
ATOM    150  CG1 VAL A   5      16.336 102.086  47.764  0.00  0.00    +0.002 C 
ENDBRANCH  91 148
ENDBRANCH  84  91
ENDBRANCH  80  89
ENDBRANCH  79  81
ENDBRANCH  75  79
ENDBRANCH   1  77
BRANCH   1 151
ATOM    151  CB  ILE A   8      12.231  95.820  53.607  0.00  0.00    +0.027 C 
ATOM    152  CG2 ILE A   8      12.023  94.332  53.385  0.00  0.00    +0.002 C 
BRANCH 151 153
ATOM    153  CG1 ILE A   8      11.767  96.210  55.007  0.00  0.00    +0.002 C 
ATOM    154  CD1 ILE A   8      10.321  96.671  55.056  0.00  0.00    +0.000 C 
ENDBRANCH 151 153
ENDBRANCH   1 151
TORSDOF 57
REMARK  Name = ../refined-set-2016/1upf/1upf_pocket.pdb
REMARK  120 active torsions:
REMARK  status: ('A' for Active; 'I' for Inactive)
REMARK    1  A    between atoms: _1  and  _3
REMARK    2  A    between atoms: _3  and  _4
REMARK    3  A    between atoms: _3  and  _6
REMARK    4  A    between atoms: _6  and  _7
REMARK    5  A    between atoms: _10  and  _12
REMARK    6  A    between atoms: _12  and  _13
REMARK    7  A    between atoms: _12  and  _15
REMARK    8  A    between atoms: _15  and  _16
REMARK    9  A    between atoms: _16  and  _17
REMARK   10  A    between atoms: _17  and  _18
REMARK   11  A    between atoms: _27  and  _29
REMARK   12  A    between atoms: _29  and  _30
REMARK   13  A    between atoms: _33  and  _35
REMARK   14  A    between atoms: _35  and  _36
REMARK   15  A    between atoms: _35  and  _38
REMARK   16  A    between atoms: _38  and  _39
REMARK   17  A    between atoms: _39  and  _40
REMARK   18  A    between atoms: _40  and  _41
REMARK   19  A    between atoms: _50  and  _52
REMARK   20  A    between atoms: _52  and  _53
REMARK   21  A    between atoms: _52  and  _55
REMARK   22  A    between atoms: _55  and  _56
REMARK   23  A    between atoms: _60  and  _61
REMARK   24  A    between atoms: _66  and  _68
REMARK   25  A    between atoms: _68  and  _69
REMARK   26  A    between atoms: _68  and  _71
REMARK   27  A    between atoms: _71  and  _72
REMARK   28  A    between atoms: _72  and  _73
REMARK   29  A    between atoms: _75  and  _77
REMARK   30  A    between atoms: _77  and  _78
REMARK   31  A    between atoms: _77  and  _80
REMARK   32  A    between atoms: _82  and  _84
REMARK   33  A    between atoms: _84  and  _85
REMARK   34  A    between atoms: _88  and  _90
REMARK   35  A    between atoms: _90  and  _91
REMARK   36  A    between atoms: _90  and  _93
REMARK   37  A    between atoms: _93  and  _94
REMARK   38  A    between atoms: _97  and  _99
REMARK   39  A    between atoms: _99  and  _100
REMARK   40  A    between atoms: _103  and  _105
REMARK   41  A    between atoms: _105  and  _106
REMARK   42  A    between atoms: _105  and  _108
REMARK   43  A    between atoms: _108  and  _109
REMARK   44  A    between atoms: _111  and  _113
REMARK   45  A    between atoms: _113  and  _114
REMARK   46  A    between atoms: _113  and  _116
REMARK   47  A    between atoms: _116  and  _117
REMARK   48  A    between atoms: _120  and  _122
REMARK   49  A    between atoms: _122  and  _123
REMARK   50  A    between atoms: _126  and  _128
REMARK   51  A    between atoms: _128  and  _129
REMARK   52  A    between atoms: _128  and  _131
REMARK   53  A    between atoms: _131  and  _132
REMARK   54  A    between atoms: _135  and  _137
REMARK   55  A    between atoms: _137  and  _138
REMARK   56  A    between atoms: _137  and  _140
REMARK   57  A    between atoms: _144  and  _145
REMARK   58  A    between atoms: _144  and  _147
REMARK   59  A    between atoms: _147  and  _148
REMARK   60  A    between atoms: _151  and  _153
REMARK   61  A    between atoms: _153  and  _154
REMARK   62  A    between atoms: _153  and  _156
REMARK   63  A    between atoms: _156  and  _157
REMARK   64  A    between atoms: _162  and  _164
REMARK   65  A    between atoms: _164  and  _165
REMARK   66  A    between atoms: _164  and  _167
REMARK   67  A    between atoms: _167  and  _168
REMARK   68  A    between atoms: _168  and  _169
REMARK   69  A    between atoms: _169  and  _170
REMARK   70  A    between atoms: _179  and  _181
REMARK   71  A    between atoms: _181  and  _182
REMARK   72  A    between atoms: _181  and  _184
REMARK   73  A    between atoms: _184  and  _185
REMARK   74  A    between atoms: _190  and  _191
REMARK   75  A    between atoms: _193  and  _195
REMARK   76  A    between atoms: _195  and  _196
REMARK   77  A    between atoms: _195  and  _198
REMARK   78  A    between atoms: _198  and  _199
REMARK   79  A    between atoms: _204  and  _205
REMARK   80  A    between atoms: _207  and  _209
REMARK   81  A    between atoms: _209  and  _210
REMARK   82  A    between atoms: _209  and  _212
REMARK   83  A    between atoms: _212  and  _213
REMARK   84  A    between atoms: _216  and  _218
REMARK   85  A    between atoms: _218  and  _219
REMARK   86  A    between atoms: _218  and  _221
REMARK   87  A    between atoms: _225  and  _226
REMARK   88  A    between atoms: _231  and  _233
REMARK   89  A    between atoms: _233  and  _234
REMARK   90  A    between atoms: _236  and  _238
REMARK   91  A    between atoms: _238  and  _239
REMARK   92  A    between atoms: _238  and  _241
REMARK   93  A    between atoms: _241  and  _242
REMARK   94  A    between atoms: _245  and  _247
REMARK   95  A    between atoms: _247  and  _248
REMARK   96  A    between atoms: _250  and  _252
REMARK   97  A    between atoms: _252  and  _253
REMARK   98  A    between atoms: _252  and  _255
REMARK   99  A    between atoms: _255  and  _256
REMARK  100  A    between atoms: _259  and  _261
REMARK  101  A    between atoms: _261  and  _262
REMARK  102  A    between atoms: _261  and  _264
REMARK  103  A    between atoms: _264  and  _265
REMARK  104  A    between atoms: _271  and  _273
REMARK  105  A    between atoms: _273  and  _274
REMARK  106  A    between atoms: _276  and  _278
REMARK  107  A    between atoms: _278  and  _279
REMARK  108  A    between atoms: _278  and  _281
REMARK  109  A    between atoms: _281  and  _282
REMARK  110  A    between atoms: _285  and  _287
REMARK  111  A    between atoms: _287  and  _288
REMARK  112  A    between atoms: _287  and  _290
REMARK  113  A    between atoms: _290  and  _291
REMARK  114  A    between atoms: _291  and  _292
REMARK  115  A    between atoms: _292  and  _293
REMARK  116  A    between atoms: _302  and  _304
REMARK  117  A    between atoms: _304  and  _305
REMARK  118  A    between atoms: _304  and  _307
REMARK  119  A    between atoms: _307  and  _308
REMARK  120  A    between atoms: _313  and  _314
REMARK                            x       y       z     vdW  Elec       q    Type
REMARK                         _______ _______ _______ _____ _____    ______ ____
ROOT
ATOM      1  O   HOH     1      13.340  97.719  49.708  0.00  0.00    +0.000 OA
ENDROOT
TORSDOF 0
REMARK  Name = ../refined-set-2016/1upf/1upf_pocket.pdb
REMARK  120 active torsions:
REMARK  status: ('A' for Active; 'I' for Inactive)
REMARK    1  A    between atoms: _1  and  _3
REMARK    2  A    between atoms: _3  and  _4
REMARK    3  A    between atoms: _3  and  _6
REMARK    4  A    between atoms: _6  and  _7
REMARK    5  A    between atoms: _10  and  _12
REMARK    6  A    between atoms: _12  and  _13
REMARK    7  A    between atoms: _12  and  _15
REMARK    8  A    between atoms: _15  and  _16
REMARK    9  A    between atoms: _16  and  _17
REMARK   10  A    between atoms: _17  and  _18
REMARK   11  A    between atoms: _27  and  _29
REMARK   12  A    between atoms: _29  and  _30
REMARK   13  A    between atoms: _33  and  _35
REMARK   14  A    between atoms: _35  and  _36
REMARK   15  A    between atoms: _35  and  _38
REMARK   16  A    between atoms: _38  and  _39
REMARK   17  A    between atoms: _39  and  _40
REMARK   18  A    between atoms: _40  and  _41
REMARK   19  A    between atoms: _50  and  _52
REMARK   20  A    between atoms: _52  and  _53
REMARK   21  A    between atoms: _52  and  _55
REMARK   22  A    between atoms: _55  and  _56
REMARK   23  A    between atoms: _60  and  _61
REMARK   24  A    between atoms: _66  and  _68
REMARK   25  A    between atoms: _68  and  _69
REMARK   26  A    between atoms: _68  and  _71
REMARK   27  A    between atoms: _71  and  _72
REMARK   28  A    between atoms: _72  and  _73
REMARK   29  A    between atoms: _75  and  _77
REMARK   30  A    between atoms: _77  and  _78
REMARK   31  A    between atoms: _77  and  _80
REMARK   32  A    between atoms: _82  and  _84
REMARK   33  A    between atoms: _84  and  _85
REMARK   34  A    between atoms: _88  and  _90
REMARK   35  A    between atoms: _90  and  _91
REMARK   36  A    between atoms: _90  and  _93
REMARK   37  A    between atoms: _93  and  _94
REMARK   38  A    between atoms: _97  and  _99
REMARK   39  A    between atoms: _99  and  _100
REMARK   40  A    between atoms: _103  and  _105
REMARK   41  A    between atoms: _105  and  _106
REMARK   42  A    between atoms: _105  and  _108
REMARK   43  A    between atoms: _108  and  _109
REMARK   44  A    between atoms: _111  and  _113
REMARK   45  A    between atoms: _113  and  _114
REMARK   46  A    between atoms: _113  and  _116
REMARK   47  A    between atoms: _116  and  _117
REMARK   48  A    between atoms: _120  and  _122
REMARK   49  A    between atoms: _122  and  _123
REMARK   50  A    between atoms: _126  and  _128
REMARK   51  A    between atoms: _128  and  _129
REMARK   52  A    between atoms: _128  and  _131
REMARK   53  A    between atoms: _131  and  _132
REMARK   54  A    between atoms: _135  and  _137
REMARK   55  A    between atoms: _137  and  _138
REMARK   56  A    between atoms: _137  and  _140
REMARK   57  A    between atoms: _144  and  _145
REMARK   58  A    between atoms: _144  and  _147
REMARK   59  A    between atoms: _147  and  _148
REMARK   60  A    between atoms: _151  and  _153
REMARK   61  A    between atoms: _153  and  _154
REMARK   62  A    between atoms: _153  and  _156
REMARK   63  A    between atoms: _156  and  _157
REMARK   64  A    between atoms: _162  and  _164
REMARK   65  A    between atoms: _164  and  _165
REMARK   66  A    between atoms: _164  and  _167
REMARK   67  A    between atoms: _167  and  _168
REMARK   68  A    between atoms: _168  and  _169
REMARK   69  A    between atoms: _169  and  _170
REMARK   70  A    between atoms: _179  and  _181
REMARK   71  A    between atoms: _181  and  _182
REMARK   72  A    between atoms: _181  and  _184
REMARK   73  A    between atoms: _184  and  _185
REMARK   74  A    between atoms: _190  and  _191
REMARK   75  A    between atoms: _193  and  _195
REMARK   76  A    between atoms: _195  and  _196
REMARK   77  A    between atoms: _195  and  _198
REMARK   78  A    between atoms: _198  and  _199
REMARK   79  A    between atoms: _204  and  _205
REMARK   80  A    between atoms: _207  and  _209
REMARK   81  A    between atoms: _209  and  _210
REMARK   82  A    between atoms: _209  and  _212
REMARK   83  A    between atoms: _212  and  _213
REMARK   84  A    between atoms: _216  and  _218
REMARK   85  A    between atoms: _218  and  _219
REMARK   86  A    between atoms: _218  and  _221
REMARK   87  A    between atoms: _225  and  _226
REMARK   88  A    between atoms: _231  and  _233
REMARK   89  A    between atoms: _233  and  _234
REMARK   90  A    between atoms: _236  and  _238
REMARK   91  A    between atoms: _238  and  _239
REMARK   92  A    between atoms: _238  and  _241
REMARK   93  A    between atoms: _241  and  _242
REMARK   94  A    between atoms: _245  and  _247
REMARK   95  A    between atoms: _247  and  _248
REMARK   96  A    between atoms: _250  and  _252
REMARK   97  A    between atoms: _252  and  _253
REMARK   98  A    between atoms: _252  and  _255
REMARK   99  A    between atoms: _255  and  _256
REMARK  100  A    between atoms: _259  and  _261
REMARK  101  A    between atoms: _261  and  _262
REMARK  102  A    between atoms: _261  and  _264
REMARK  103  A    between atoms: _264  and  _265
REMARK  104  A    between atoms: _271  and  _273
REMARK  105  A    between atoms: _273  and  _274
REMARK  106  A    between atoms: _276  and  _278
REMARK  107  A    between atoms: _278  and  _279
REMARK  108  A    between atoms: _278  and  _281
REMARK  109  A    between atoms: _281  and  _282
REMARK  110  A    between atoms: _285  and  _287
REMARK  111  A    between atoms: _287  and  _288
REMARK  112  A    between atoms: _287  and  _290
REMARK  113  A    between atoms: _290  and  _291
REMARK  114  A    between atoms: _291  and  _292
REMARK  115  A    between atoms: _292  and  _293
REMARK  116  A    between atoms: _302  and  _304
REMARK  117  A    between atoms: _304  and  _305
REMARK  118  A    between atoms: _304  and  _307
REMARK  119  A    between atoms: _307  and  _308
REMARK  120  A    between atoms: _313  and  _314
REMARK                            x       y       z     vdW  Elec       q    Type
REMARK                         _______ _______ _______ _____ _____    ______ ____
ROOT
ATOM      1  O   HOH     1       1.720  96.667  46.793  0.00  0.00    +0.000 OA
ENDROOT
TORSDOF 0
REMARK  Name = ../refined-set-2016/1upf/1upf_pocket.pdb
REMARK  120 active torsions:
REMARK  status: ('A' for Active; 'I' for Inactive)
REMARK    1  A    between atoms: _1  and  _3
REMARK    2  A    between atoms: _3  and  _4
REMARK    3  A    between atoms: _3  and  _6
REMARK    4  A    between atoms: _6  and  _7
REMARK    5  A    between atoms: _10  and  _12
REMARK    6  A    between atoms: _12  and  _13
REMARK    7  A    between atoms: _12  and  _15
REMARK    8  A    between atoms: _15  and  _16
REMARK    9  A    between atoms: _16  and  _17
REMARK   10  A    between atoms: _17  and  _18
REMARK   11  A    between atoms: _27  and  _29
REMARK   12  A    between atoms: _29  and  _30
REMARK   13  A    between atoms: _33  and  _35
REMARK   14  A    between atoms: _35  and  _36
REMARK   15  A    between atoms: _35  and  _38
REMARK   16  A    between atoms: _38  and  _39
REMARK   17  A    between atoms: _39  and  _40
REMARK   18  A    between atoms: _40  and  _41
REMARK   19  A    between atoms: _50  and  _52
REMARK   20  A    between atoms: _52  and  _53
REMARK   21  A    between atoms: _52  and  _55
REMARK   22  A    between atoms: _55  and  _56
REMARK   23  A    between atoms: _60  and  _61
REMARK   24  A    between atoms: _66  and  _68
REMARK   25  A    between atoms: _68  and  _69
REMARK   26  A    between atoms: _68  and  _71
REMARK   27  A    between atoms: _71  and  _72
REMARK   28  A    between atoms: _72  and  _73
REMARK   29  A    between atoms: _75  and  _77
REMARK   30  A    between atoms: _77  and  _78
REMARK   31  A    between atoms: _77  and  _80
REMARK   32  A    between atoms: _82  and  _84
REMARK   33  A    between atoms: _84  and  _85
REMARK   34  A    between atoms: _88  and  _90
REMARK   35  A    between atoms: _90  and  _91
REMARK   36  A    between atoms: _90  and  _93
REMARK   37  A    between atoms: _93  and  _94
REMARK   38  A    between atoms: _97  and  _99
REMARK   39  A    between atoms: _99  and  _100
REMARK   40  A    between atoms: _103  and  _105
REMARK   41  A    between atoms: _105  and  _106
REMARK   42  A    between atoms: _105  and  _108
REMARK   43  A    between atoms: _108  and  _109
REMARK   44  A    between atoms: _111  and  _113
REMARK   45  A    between atoms: _113  and  _114
REMARK   46  A    between atoms: _113  and  _116
REMARK   47  A    between atoms: _116  and  _117
REMARK   48  A    between atoms: _120  and  _122
REMARK   49  A    between atoms: _122  and  _123
REMARK   50  A    between atoms: _126  and  _128
REMARK   51  A    between atoms: _128  and  _129
REMARK   52  A    between atoms: _128  and  _131
REMARK   53  A    between atoms: _131  and  _132
REMARK   54  A    between atoms: _135  and  _137
REMARK   55  A    between atoms: _137  and  _138
REMARK   56  A    between atoms: _137  and  _140
REMARK   57  A    between atoms: _144  and  _145
REMARK   58  A    between atoms: _144  and  _147
REMARK   59  A    between atoms: _147  and  _148
REMARK   60  A    between atoms: _151  and  _153
REMARK   61  A    between atoms: _153  and  _154
REMARK   62  A    between atoms: _153  and  _156
REMARK   63  A    between atoms: _156  and  _157
REMARK   64  A    between atoms: _162  and  _164
REMARK   65  A    between atoms: _164  and  _165
REMARK   66  A    between atoms: _164  and  _167
REMARK   67  A    between atoms: _167  and  _168
REMARK   68  A    between atoms: _168  and  _169
REMARK   69  A    between atoms: _169  and  _170
REMARK   70  A    between atoms: _179  and  _181
REMARK   71  A    between atoms: _181  and  _182
REMARK   72  A    between atoms: _181  and  _184
REMARK   73  A    between atoms: _184  and  _185
REMARK   74  A    between atoms: _190  and  _191
REMARK   75  A    between atoms: _193  and  _195
REMARK   76  A    between atoms: _195  and  _196
REMARK   77  A    between atoms: _195  and  _198
REMARK   78  A    between atoms: _198  and  _199
REMARK   79  A    between atoms: _204  and  _205
REMARK   80  A    between atoms: _207  and  _209
REMARK   81  A    between atoms: _209  and  _210
REMARK   82  A    between atoms: _209  and  _212
REMARK   83  A    between atoms: _212  and  _213
REMARK   84  A    between atoms: _216  and  _218
REMARK   85  A    between atoms: _218  and  _219
REMARK   86  A    between atoms: _218  and  _221
REMARK   87  A    between atoms: _225  and  _226
REMARK   88  A    between atoms: _231  and  _233
REMARK   89  A    between atoms: _233  and  _234
REMARK   90  A    between atoms: _236  and  _238
REMARK   91  A    between atoms: _238  and  _239
REMARK   92  A    between atoms: _238  and  _241
REMARK   93  A    between atoms: _241  and  _242
REMARK   94  A    between atoms: _245  and  _247
REMARK   95  A    between atoms: _247  and  _248
REMARK   96  A    between atoms: _250  and  _252
REMARK   97  A    between atoms: _252  and  _253
REMARK   98  A    between atoms: _252  and  _255
REMARK   99  A    between atoms: _255  and  _256
REMARK  100  A    between atoms: _259  and  _261
REMARK  101  A    between atoms: _261  and  _262
REMARK  102  A    between atoms: _261  and  _264
REMARK  103  A    between atoms: _264  and  _265
REMARK  104  A    between atoms: _271  and  _273
REMARK  105  A    between atoms: _273  and  _274
REMARK  106  A    between atoms: _276  and  _278
REMARK  107  A    between atoms: _278  and  _279
REMARK  108  A    between atoms: _278  and  _281
REMARK  109  A    between atoms: _281  and  _282
REMARK  110  A    between atoms: _285  and  _287
REMARK  111  A    between atoms: _287  and  _288
REMARK  112  A    between atoms: _287  and  _290
REMARK  113  A    between atoms: _290  and  _291
REMARK  114  A    between atoms: _291  and  _292
REMARK  115  A    between atoms: _292  and  _293
REMARK  116  A    between atoms: _302  and  _304
REMARK  117  A    between atoms: _304  and  _305
REMARK  118  A    between atoms: _304  and  _307
REMARK  119  A    between atoms: _307  and  _308
REMARK  120  A    between atoms: _313  and  _314
REMARK                            x       y       z     vdW  Elec       q    Type
REMARK                         _______ _______ _______ _____ _____    ______ ____
ROOT
ATOM      1  O   HOH     1       3.115  90.479  46.643  0.00  0.00    +0.000 OA
ENDROOT
TORSDOF 0
REMARK  Name = ../refined-set-2016/1upf/1upf_pocket.pdb
REMARK  120 active torsions:
REMARK  status: ('A' for Active; 'I' for Inactive)
REMARK    1  A    between atoms: _1  and  _3
REMARK    2  A    between atoms: _3  and  _4
REMARK    3  A    between atoms: _3  and  _6
REMARK    4  A    between atoms: _6  and  _7
REMARK    5  A    between atoms: _10  and  _12
REMARK    6  A    between atoms: _12  and  _13
REMARK    7  A    between atoms: _12  and  _15
REMARK    8  A    between atoms: _15  and  _16
REMARK    9  A    between atoms: _16  and  _17
REMARK   10  A    between atoms: _17  and  _18
REMARK   11  A    between atoms: _27  and  _29
REMARK   12  A    between atoms: _29  and  _30
REMARK   13  A    between atoms: _33  and  _35
REMARK   14  A    between atoms: _35  and  _36
REMARK   15  A    between atoms: _35  and  _38
REMARK   16  A    between atoms: _38  and  _39
REMARK   17  A    between atoms: _39  and  _40
REMARK   18  A    between atoms: _40  and  _41
REMARK   19  A    between atoms: _50  and  _52
REMARK   20  A    between atoms: _52  and  _53
REMARK   21  A    between atoms: _52  and  _55
REMARK   22  A    between atoms: _55  and  _56
REMARK   23  A    between atoms: _60  and  _61
REMARK   24  A    between atoms: _66  and  _68
REMARK   25  A    between atoms: _68  and  _69
REMARK   26  A    between atoms: _68  and  _71
REMARK   27  A    between atoms: _71  and  _72
REMARK   28  A    between atoms: _72  and  _73
REMARK   29  A    between atoms: _75  and  _77
REMARK   30  A    between atoms: _77  and  _78
REMARK   31  A    between atoms: _77  and  _80
REMARK   32  A    between atoms: _82  and  _84
REMARK   33  A    between atoms: _84  and  _85
REMARK   34  A    between atoms: _88  and  _90
REMARK   35  A    between atoms: _90  and  _91
REMARK   36  A    between atoms: _90  and  _93
REMARK   37  A    between atoms: _93  and  _94
REMARK   38  A    between atoms: _97  and  _99
REMARK   39  A    between atoms: _99  and  _100
REMARK   40  A    between atoms: _103  and  _105
REMARK   41  A    between atoms: _105  and  _106
REMARK   42  A    between atoms: _105  and  _108
REMARK   43  A    between atoms: _108  and  _109
REMARK   44  A    between atoms: _111  and  _113
REMARK   45  A    between atoms: _113  and  _114
REMARK   46  A    between atoms: _113  and  _116
REMARK   47  A    between atoms: _116  and  _117
REMARK   48  A    between atoms: _120  and  _122
REMARK   49  A    between atoms: _122  and  _123
REMARK   50  A    between atoms: _126  and  _128
REMARK   51  A    between atoms: _128  and  _129
REMARK   52  A    between atoms: _128  and  _131
REMARK   53  A    between atoms: _131  and  _132
REMARK   54  A    between atoms: _135  and  _137
REMARK   55  A    between atoms: _137  and  _138
REMARK   56  A    between atoms: _137  and  _140
REMARK   57  A    between atoms: _144  and  _145
REMARK   58  A    between atoms: _144  and  _147
REMARK   59  A    between atoms: _147  and  _148
REMARK   60  A    between atoms: _151  and  _153
REMARK   61  A    between atoms: _153  and  _154
REMARK   62  A    between atoms: _153  and  _156
REMARK   63  A    between atoms: _156  and  _157
REMARK   64  A    between atoms: _162  and  _164
REMARK   65  A    between atoms: _164  and  _165
REMARK   66  A    between atoms: _164  and  _167
REMARK   67  A    between atoms: _167  and  _168
REMARK   68  A    between atoms: _168  and  _169
REMARK   69  A    between atoms: _169  and  _170
REMARK   70  A    between atoms: _179  and  _181
REMARK   71  A    between atoms: _181  and  _182
REMARK   72  A    between atoms: _181  and  _184
REMARK   73  A    between atoms: _184  and  _185
REMARK   74  A    between atoms: _190  and  _191
REMARK   75  A    between atoms: _193  and  _195
REMARK   76  A    between atoms: _195  and  _196
REMARK   77  A    between atoms: _195  and  _198
REMARK   78  A    between atoms: _198  and  _199
REMARK   79  A    between atoms: _204  and  _205
REMARK   80  A    between atoms: _207  and  _209
REMARK   81  A    between atoms: _209  and  _210
REMARK   82  A    between atoms: _209  and  _212
REMARK   83  A    between atoms: _212  and  _213
REMARK   84  A    between atoms: _216  and  _218
REMARK   85  A    between atoms: _218  and  _219
REMARK   86  A    between atoms: _218  and  _221
REMARK   87  A    between atoms: _225  and  _226
REMARK   88  A    between atoms: _231  and  _233
REMARK   89  A    between atoms: _233  and  _234
REMARK   90  A    between atoms: _236  and  _238
REMARK   91  A    between atoms: _238  and  _239
REMARK   92  A    between atoms: _238  and  _241
REMARK   93  A    between atoms: _241  and  _242
REMARK   94  A    between atoms: _245  and  _247
REMARK   95  A    between atoms: _247  and  _248
REMARK   96  A    between atoms: _250  and  _252
REMARK   97  A    between atoms: _252  and  _253
REMARK   98  A    between atoms: _252  and  _255
REMARK   99  A    between atoms: _255  and  _256
REMARK  100  A    between atoms: _259  and  _261
REMARK  101  A    between atoms: _261  and  _262
REMARK  102  A    between atoms: _261  and  _264
REMARK  103  A    between atoms: _264  and  _265
REMARK  104  A    between atoms: _271  and  _273
REMARK  105  A    between atoms: _273  and  _274
REMARK  106  A    between atoms: _276  and  _278
REMARK  107  A    between atoms: _278  and  _279
REMARK  108  A    between atoms: _278  and  _281
REMARK  109  A    between atoms: _281  and  _282
REMARK  110  A    between atoms: _285  and  _287
REMARK  111  A    between atoms: _287  and  _288
REMARK  112  A    between atoms: _287  and  _290
REMARK  113  A    between atoms: _290  and  _291
REMARK  114  A    between atoms: _291  and  _292
REMARK  115  A    between atoms: _292  and  _293
REMARK  116  A    between atoms: _302  and  _304
REMARK  117  A    between atoms: _304  and  _305
REMARK  118  A    between atoms: _304  and  _307
REMARK  119  A    between atoms: _307  and  _308
REMARK  120  A    between atoms: _313  and  _314
REMARK                            x       y       z     vdW  Elec       q    Type
REMARK                         _______ _______ _______ _____ _____    ______ ____
ROOT
ATOM      1  O   HOH     1       8.460  90.760  48.408  0.00  0.00    +0.000 OA
ENDROOT
TORSDOF 0
