REMARK  Name = ../refined-set-2016/1hvi/1hvi_pocket.pdb
REMARK  229 active torsions:
REMARK  status: ('A' for Active; 'I' for Inactive)
REMARK    1  A    between atoms: _1  and  _3
REMARK    2  A    between atoms: _3  and  _4
REMARK    3  A    between atoms: _3  and  _6
REMARK    4  A    between atoms: _6  and  _7
REMARK    5  A    between atoms: _7  and  _8
REMARK    6  A    between atoms: _8  and  _9
REMARK    7  A    between atoms: _19  and  _20
REMARK    8  A    between atoms: _25  and  _27
REMARK    9  A    between atoms: _27  and  _28
REMARK   10  A    between atoms: _27  and  _30
REMARK   11  A    between atoms: _30  and  _31
REMARK   12  A    between atoms: _34  and  _36
REMARK   13  A    between atoms: _36  and  _37
REMARK   14  A    between atoms: _36  and  _39
REMARK   15  A    between atoms: _39  and  _40
REMARK   16  A    between atoms: _43  and  _45
REMARK   17  A    between atoms: _45  and  _46
REMARK   18  A    between atoms: _45  and  _48
REMARK   19  A    between atoms: _48  and  _49
REMARK   20  A    between atoms: _52  and  _54
REMARK   21  A    between atoms: _54  and  _55
REMARK   22  A    between atoms: _54  and  _57
REMARK   23  A    between atoms: _57  and  _58
REMARK   24  A    between atoms: _61  and  _63
REMARK   25  A    between atoms: _63  and  _64
REMARK   26  A    between atoms: _63  and  _66
REMARK   27  A    between atoms: _66  and  _67
REMARK   28  A    between atoms: _70  and  _72
REMARK   29  A    between atoms: _72  and  _73
REMARK   30  A    between atoms: _75  and  _77
REMARK   31  A    between atoms: _77  and  _78
REMARK   32  A    between atoms: _81  and  _83
REMARK   33  A    between atoms: _83  and  _84
REMARK   34  A    between atoms: _83  and  _86
REMARK   35  A    between atoms: _86  and  _87
REMARK   36  A    between atoms: _90  and  _92
REMARK   37  A    between atoms: _92  and  _93
REMARK   38  A    between atoms: _92  and  _95
REMARK   39  A    between atoms: _95  and  _96
REMARK   40  A    between atoms: _99  and  _101
REMARK   41  A    between atoms: _101  and  _102
REMARK   42  A    between atoms: _101  and  _104
REMARK   43  A    between atoms: _104  and  _105
REMARK   44  A    between atoms: _108  and  _110
REMARK   45  A    between atoms: _110  and  _111
REMARK   46  A    between atoms: _110  and  _113
REMARK   47  A    between atoms: _116  and  _118
REMARK   48  A    between atoms: _118  and  _119
REMARK   49  A    between atoms: _118  and  _121
REMARK   50  A    between atoms: _121  and  _122
REMARK   51  A    between atoms: _122  and  _123
REMARK   52  A    between atoms: _123  and  _124
REMARK   53  A    between atoms: _124  and  _125
REMARK   54  A    between atoms: _129  and  _131
REMARK   55  A    between atoms: _131  and  _132
REMARK   56  A    between atoms: _131  and  _134
REMARK   57  A    between atoms: _134  and  _135
REMARK   58  A    between atoms: _135  and  _136
REMARK   59  A    between atoms: _138  and  _140
REMARK   60  A    between atoms: _140  and  _141
REMARK   61  A    between atoms: _140  and  _143
REMARK   62  A    between atoms: _143  and  _144
REMARK   63  A    between atoms: _147  and  _149
REMARK   64  A    between atoms: _149  and  _150
REMARK   65  A    between atoms: _152  and  _154
REMARK   66  A    between atoms: _154  and  _155
REMARK   67  A    between atoms: _157  and  _159
REMARK   68  A    between atoms: _159  and  _160
REMARK   69  A    between atoms: _159  and  _162
REMARK   70  A    between atoms: _162  and  _163
REMARK   71  A    between atoms: _166  and  _168
REMARK   72  A    between atoms: _168  and  _169
REMARK   73  A    between atoms: _171  and  _173
REMARK   74  A    between atoms: _173  and  _174
REMARK   75  A    between atoms: _176  and  _178
REMARK   76  A    between atoms: _178  and  _179
REMARK   77  A    between atoms: _178  and  _181
REMARK   78  A    between atoms: _181  and  _182
REMARK   79  A    between atoms: _188  and  _190
REMARK   80  A    between atoms: _190  and  _191
REMARK   81  A    between atoms: _190  and  _193
REMARK   82  A    between atoms: _193  and  _194
REMARK   83  A    between atoms: _197  and  _199
REMARK   84  A    between atoms: _199  and  _200
REMARK   85  A    between atoms: _199  and  _202
REMARK   86  A    between atoms: _202  and  _203
REMARK   87  A    between atoms: _207  and  _208
REMARK   88  A    between atoms: _213  and  _215
REMARK   89  A    between atoms: _215  and  _216
REMARK   90  A    between atoms: _215  and  _218
REMARK   91  A    between atoms: _218  and  _219
REMARK   92  A    between atoms: _223  and  _224
REMARK   93  A    between atoms: _229  and  _231
REMARK   94  A    between atoms: _231  and  _232
REMARK   95  A    between atoms: _231  and  _234
REMARK   96  A    between atoms: _237  and  _239
REMARK   97  A    between atoms: _239  and  _240
REMARK   98  A    between atoms: _239  and  _242
REMARK   99  A    between atoms: _242  and  _243
REMARK  100  A    between atoms: _248  and  _250
REMARK  101  A    between atoms: _250  and  _251
REMARK  102  A    between atoms: _250  and  _253
REMARK  103  A    between atoms: _253  and  _254
REMARK  104  A    between atoms: _257  and  _259
REMARK  105  A    between atoms: _259  and  _260
REMARK  106  A    between atoms: _259  and  _262
REMARK  107  A    between atoms: _262  and  _263
REMARK  108  A    between atoms: _266  and  _268
REMARK  109  A    between atoms: _268  and  _269
REMARK  110  A    between atoms: _271  and  _273
REMARK  111  A    between atoms: _273  and  _274
REMARK  112  A    between atoms: _273  and  _276
REMARK  113  A    between atoms: _276  and  _277
REMARK  114  A    between atoms: _277  and  _278
REMARK  115  A    between atoms: _278  and  _279
REMARK  116  A    between atoms: _288  and  _290
REMARK  117  A    between atoms: _290  and  _291
REMARK  118  A    between atoms: _290  and  _293
REMARK  119  A    between atoms: _293  and  _294
REMARK  120  A    between atoms: _294  and  _295
REMARK  121  A    between atoms: _295  and  _296
REMARK  122  A    between atoms: _305  and  _307
REMARK  123  A    between atoms: _307  and  _308
REMARK  124  A    between atoms: _307  and  _310
REMARK  125  A    between atoms: _310  and  _311
REMARK  126  A    between atoms: _314  and  _316
REMARK  127  A    between atoms: _316  and  _317
REMARK  128  A    between atoms: _316  and  _319
REMARK  129  A    between atoms: _319  and  _320
REMARK  130  A    between atoms: _323  and  _325
REMARK  131  A    between atoms: _325  and  _326
REMARK  132  A    between atoms: _325  and  _328
REMARK  133  A    between atoms: _328  and  _329
REMARK  134  A    between atoms: _332  and  _334
REMARK  135  A    between atoms: _334  and  _335
REMARK  136  A    between atoms: _334  and  _337
REMARK  137  A    between atoms: _337  and  _338
REMARK  138  A    between atoms: _341  and  _343
REMARK  139  A    between atoms: _343  and  _344
REMARK  140  A    between atoms: _343  and  _346
REMARK  141  A    between atoms: _346  and  _347
REMARK  142  A    between atoms: _350  and  _352
REMARK  143  A    between atoms: _352  and  _353
REMARK  144  A    between atoms: _355  and  _357
REMARK  145  A    between atoms: _357  and  _358
REMARK  146  A    between atoms: _361  and  _363
REMARK  147  A    between atoms: _363  and  _364
REMARK  148  A    between atoms: _363  and  _366
REMARK  149  A    between atoms: _366  and  _367
REMARK  150  A    between atoms: _370  and  _372
REMARK  151  A    between atoms: _372  and  _373
REMARK  152  A    between atoms: _372  and  _375
REMARK  153  A    between atoms: _375  and  _376
REMARK  154  A    between atoms: _379  and  _381
REMARK  155  A    between atoms: _381  and  _382
REMARK  156  A    between atoms: _381  and  _384
REMARK  157  A    between atoms: _384  and  _385
REMARK  158  A    between atoms: _388  and  _390
REMARK  159  A    between atoms: _390  and  _391
REMARK  160  A    between atoms: _390  and  _393
REMARK  161  A    between atoms: _396  and  _398
REMARK  162  A    between atoms: _398  and  _399
REMARK  163  A    between atoms: _398  and  _401
REMARK  164  A    between atoms: _401  and  _402
REMARK  165  A    between atoms: _402  and  _403
REMARK  166  A    between atoms: _403  and  _404
REMARK  167  A    between atoms: _404  and  _405
REMARK  168  A    between atoms: _409  and  _411
REMARK  169  A    between atoms: _411  and  _412
REMARK  170  A    between atoms: _411  and  _414
REMARK  171  A    between atoms: _414  and  _415
REMARK  172  A    between atoms: _415  and  _416
REMARK  173  A    between atoms: _418  and  _420
REMARK  174  A    between atoms: _420  and  _421
REMARK  175  A    between atoms: _420  and  _423
REMARK  176  A    between atoms: _423  and  _424
REMARK  177  A    between atoms: _427  and  _429
REMARK  178  A    between atoms: _429  and  _430
REMARK  179  A    between atoms: _432  and  _434
REMARK  180  A    between atoms: _434  and  _435
REMARK  181  A    between atoms: _437  and  _439
REMARK  182  A    between atoms: _439  and  _440
REMARK  183  A    between atoms: _439  and  _442
REMARK  184  A    between atoms: _442  and  _443
REMARK  185  A    between atoms: _446  and  _448
REMARK  186  A    between atoms: _448  and  _449
REMARK  187  A    between atoms: _451  and  _453
REMARK  188  A    between atoms: _453  and  _454
REMARK  189  A    between atoms: _456  and  _458
REMARK  190  A    between atoms: _458  and  _459
REMARK  191  A    between atoms: _458  and  _461
REMARK  192  A    between atoms: _461  and  _462
REMARK  193  A    between atoms: _468  and  _470
REMARK  194  A    between atoms: _470  and  _471
REMARK  195  A    between atoms: _470  and  _473
REMARK  196  A    between atoms: _473  and  _474
REMARK  197  A    between atoms: _477  and  _479
REMARK  198  A    between atoms: _479  and  _480
REMARK  199  A    between atoms: _479  and  _482
REMARK  200  A    between atoms: _482  and  _483
REMARK  201  A    between atoms: _487  and  _488
REMARK  202  A    between atoms: _493  and  _495
REMARK  203  A    between atoms: _495  and  _496
REMARK  204  A    between atoms: _495  and  _498
REMARK  205  A    between atoms: _498  and  _499
REMARK  206  A    between atoms: _503  and  _504
REMARK  207  A    between atoms: _509  and  _511
REMARK  208  A    between atoms: _511  and  _512
REMARK  209  A    between atoms: _511  and  _514
REMARK  210  A    between atoms: _517  and  _519
REMARK  211  A    between atoms: _519  and  _520
REMARK  212  A    between atoms: _519  and  _522
REMARK  213  A    between atoms: _522  and  _523
REMARK  214  A    between atoms: _528  and  _530
REMARK  215  A    between atoms: _530  and  _531
REMARK  216  A    between atoms: _530  and  _533
REMARK  217  A    between atoms: _533  and  _534
REMARK  218  A    between atoms: _537  and  _539
REMARK  219  A    between atoms: _539  and  _540
REMARK  220  A    between atoms: _539  and  _542
REMARK  221  A    between atoms: _542  and  _543
REMARK  222  A    between atoms: _546  and  _548
REMARK  223  A    between atoms: _548  and  _549
REMARK  224  A    between atoms: _551  and  _553
REMARK  225  A    between atoms: _553  and  _554
REMARK  226  A    between atoms: _553  and  _556
REMARK  227  A    between atoms: _556  and  _557
REMARK  228  A    between atoms: _557  and  _558
REMARK  229  A    between atoms: _558  and  _559
REMARK                            x       y       z     vdW  Elec       q    Type
REMARK                         _______ _______ _______ _____ _____    ______ ____
ROOT
ATOM      1  C   ARG A   1       2.107  -3.611  27.461  0.00  0.00    +0.241 C 
ATOM      2  O   ARG A   1       1.327  -4.020  28.310  0.00  0.00    -0.273 OA
ATOM      3  N   PRO A   2       2.056  -2.370  26.976  0.00  0.00    -0.272 N 
ATOM      4  CA  PRO A   2       1.006  -1.434  27.428  0.00  0.00    +0.152 C 
ATOM      5  CB  PRO A   2       1.630  -0.070  27.131  0.00  0.00    +0.031 C 
ATOM      6  CG  PRO A   2       2.482  -0.344  25.906  0.00  0.00    +0.024 C 
ATOM      7  CD  PRO A   2       3.066  -1.731  26.150  0.00  0.00    +0.094 C 
ENDROOT
BRANCH   4   8
ATOM      8  C   PRO A   2      -0.378  -1.638  26.809  0.00  0.00    +0.241 C 
ATOM      9  N   LEU A   3      -0.916  -2.776  27.211  0.00  0.00    -0.298 N 
ATOM     10  H   LEU A   3      -0.374  -3.407  27.836  0.00  0.00    +0.150 HD
ATOM     11  O   PRO A   2      -0.944  -0.863  26.050  0.00  0.00    -0.273 OA
BRANCH   9  12
ATOM     12  CA  LEU A   3      -2.258  -3.160  26.791  0.00  0.00    +0.137 C 
BRANCH  12  13
ATOM     13  C   LEU A   3      -3.359  -2.644  27.658  0.00  0.00    +0.227 C 
ATOM     14  O   LEU A   3      -3.399  -2.871  28.850  0.00  0.00    -0.286 OA
ENDBRANCH  12  13
BRANCH  12  15
ATOM     15  CB  LEU A   3      -2.404  -4.661  26.825  0.00  0.00    +0.028 C 
BRANCH  15  16
ATOM     16  CG  LEU A   3      -1.502  -5.363  25.819  0.00  0.00    +0.002 C 
ATOM     17  CD2 LEU A   3      -1.230  -6.815  26.263  0.00  0.00    +0.000 C 
ATOM     18  CD1 LEU A   3      -2.086  -5.226  24.413  0.00  0.00    +0.000 C 
ENDBRANCH  15  16
ENDBRANCH  12  15
ENDBRANCH   9  12
ENDBRANCH   4   8
BRANCH   1  19
ATOM     19  CA  ARG A   1       3.237  -4.538  26.954  0.00  0.00    +0.145 C 
BRANCH  19  20
ATOM     20  N   ARG A   1       3.965  -5.244  28.032  0.00  0.00    -0.238 NA
ATOM     21  H   ARG A   1       4.108  -6.273  27.996  0.00  0.00    +0.142 HD
ENDBRANCH  19  20
BRANCH  19  22
ATOM     22  CB  ARG A   1       2.617  -5.576  26.013  0.00  0.00    +0.030 C 
BRANCH  22  23
ATOM     23  CG  ARG A   1       3.669  -6.348  25.258  0.00  0.00    +0.045 C 
BRANCH  23  24
ATOM     24  CD  ARG A   1       3.094  -7.303  24.238  0.00  0.00    +0.174 C 
BRANCH  24  25
ATOM     25  NE  ARG A   1       4.178  -8.074  23.616  0.00  0.00    -0.265 N 
ATOM     26  HE  ARG A   1       5.086  -7.607  23.419  0.00  0.00    +0.259 HD
ATOM     27  CZ  ARG A   1       4.020  -9.380  23.294  0.00  0.00    +0.342 C 
ATOM     28  NH2 ARG A   1       2.873 -10.011  23.547  0.00  0.00    -0.292 N 
ATOM     29 HH21 ARG A   1       2.087  -9.500  23.997  0.00  0.00    +0.255 HD
ATOM     30 HH22 ARG A   1       2.765 -11.014  23.295  0.00  0.00    +0.255 HD
ATOM     31  NH1 ARG A   1       4.997 -10.063  22.689  0.00  0.00    -0.292 N 
ATOM     32 HH11 ARG A   1       5.895  -9.592  22.459  0.00  0.00    +0.255 HD
ATOM     33 HH12 ARG A   1       4.859 -11.065  22.449  0.00  0.00    +0.255 HD
ENDBRANCH  24  25
ENDBRANCH  23  24
ENDBRANCH  22  23
ENDBRANCH  19  22
ENDBRANCH   1  19
TORSDOF 11
REMARK  Name = ../refined-set-2016/1hvi/1hvi_pocket.pdb
REMARK  229 active torsions:
REMARK  status: ('A' for Active; 'I' for Inactive)
REMARK    1  A    between atoms: _1  and  _3
REMARK    2  A    between atoms: _3  and  _4
REMARK    3  A    between atoms: _3  and  _6
REMARK    4  A    between atoms: _6  and  _7
REMARK    5  A    between atoms: _7  and  _8
REMARK    6  A    between atoms: _8  and  _9
REMARK    7  A    between atoms: _19  and  _20
REMARK    8  A    between atoms: _25  and  _27
REMARK    9  A    between atoms: _27  and  _28
REMARK   10  A    between atoms: _27  and  _30
REMARK   11  A    between atoms: _30  and  _31
REMARK   12  A    between atoms: _34  and  _36
REMARK   13  A    between atoms: _36  and  _37
REMARK   14  A    between atoms: _36  and  _39
REMARK   15  A    between atoms: _39  and  _40
REMARK   16  A    between atoms: _43  and  _45
REMARK   17  A    between atoms: _45  and  _46
REMARK   18  A    between atoms: _45  and  _48
REMARK   19  A    between atoms: _48  and  _49
REMARK   20  A    between atoms: _52  and  _54
REMARK   21  A    between atoms: _54  and  _55
REMARK   22  A    between atoms: _54  and  _57
REMARK   23  A    between atoms: _57  and  _58
REMARK   24  A    between atoms: _61  and  _63
REMARK   25  A    between atoms: _63  and  _64
REMARK   26  A    between atoms: _63  and  _66
REMARK   27  A    between atoms: _66  and  _67
REMARK   28  A    between atoms: _70  and  _72
REMARK   29  A    between atoms: _72  and  _73
REMARK   30  A    between atoms: _75  and  _77
REMARK   31  A    between atoms: _77  and  _78
REMARK   32  A    between atoms: _81  and  _83
REMARK   33  A    between atoms: _83  and  _84
REMARK   34  A    between atoms: _83  and  _86
REMARK   35  A    between atoms: _86  and  _87
REMARK   36  A    between atoms: _90  and  _92
REMARK   37  A    between atoms: _92  and  _93
REMARK   38  A    between atoms: _92  and  _95
REMARK   39  A    between atoms: _95  and  _96
REMARK   40  A    between atoms: _99  and  _101
REMARK   41  A    between atoms: _101  and  _102
REMARK   42  A    between atoms: _101  and  _104
REMARK   43  A    between atoms: _104  and  _105
REMARK   44  A    between atoms: _108  and  _110
REMARK   45  A    between atoms: _110  and  _111
REMARK   46  A    between atoms: _110  and  _113
REMARK   47  A    between atoms: _116  and  _118
REMARK   48  A    between atoms: _118  and  _119
REMARK   49  A    between atoms: _118  and  _121
REMARK   50  A    between atoms: _121  and  _122
REMARK   51  A    between atoms: _122  and  _123
REMARK   52  A    between atoms: _123  and  _124
REMARK   53  A    between atoms: _124  and  _125
REMARK   54  A    between atoms: _129  and  _131
REMARK   55  A    between atoms: _131  and  _132
REMARK   56  A    between atoms: _131  and  _134
REMARK   57  A    between atoms: _134  and  _135
REMARK   58  A    between atoms: _135  and  _136
REMARK   59  A    between atoms: _138  and  _140
REMARK   60  A    between atoms: _140  and  _141
REMARK   61  A    between atoms: _140  and  _143
REMARK   62  A    between atoms: _143  and  _144
REMARK   63  A    between atoms: _147  and  _149
REMARK   64  A    between atoms: _149  and  _150
REMARK   65  A    between atoms: _152  and  _154
REMARK   66  A    between atoms: _154  and  _155
REMARK   67  A    between atoms: _157  and  _159
REMARK   68  A    between atoms: _159  and  _160
REMARK   69  A    between atoms: _159  and  _162
REMARK   70  A    between atoms: _162  and  _163
REMARK   71  A    between atoms: _166  and  _168
REMARK   72  A    between atoms: _168  and  _169
REMARK   73  A    between atoms: _171  and  _173
REMARK   74  A    between atoms: _173  and  _174
REMARK   75  A    between atoms: _176  and  _178
REMARK   76  A    between atoms: _178  and  _179
REMARK   77  A    between atoms: _178  and  _181
REMARK   78  A    between atoms: _181  and  _182
REMARK   79  A    between atoms: _188  and  _190
REMARK   80  A    between atoms: _190  and  _191
REMARK   81  A    between atoms: _190  and  _193
REMARK   82  A    between atoms: _193  and  _194
REMARK   83  A    between atoms: _197  and  _199
REMARK   84  A    between atoms: _199  and  _200
REMARK   85  A    between atoms: _199  and  _202
REMARK   86  A    between atoms: _202  and  _203
REMARK   87  A    between atoms: _207  and  _208
REMARK   88  A    between atoms: _213  and  _215
REMARK   89  A    between atoms: _215  and  _216
REMARK   90  A    between atoms: _215  and  _218
REMARK   91  A    between atoms: _218  and  _219
REMARK   92  A    between atoms: _223  and  _224
REMARK   93  A    between atoms: _229  and  _231
REMARK   94  A    between atoms: _231  and  _232
REMARK   95  A    between atoms: _231  and  _234
REMARK   96  A    between atoms: _237  and  _239
REMARK   97  A    between atoms: _239  and  _240
REMARK   98  A    between atoms: _239  and  _242
REMARK   99  A    between atoms: _242  and  _243
REMARK  100  A    between atoms: _248  and  _250
REMARK  101  A    between atoms: _250  and  _251
REMARK  102  A    between atoms: _250  and  _253
REMARK  103  A    between atoms: _253  and  _254
REMARK  104  A    between atoms: _257  and  _259
REMARK  105  A    between atoms: _259  and  _260
REMARK  106  A    between atoms: _259  and  _262
REMARK  107  A    between atoms: _262  and  _263
REMARK  108  A    between atoms: _266  and  _268
REMARK  109  A    between atoms: _268  and  _269
REMARK  110  A    between atoms: _271  and  _273
REMARK  111  A    between atoms: _273  and  _274
REMARK  112  A    between atoms: _273  and  _276
REMARK  113  A    between atoms: _276  and  _277
REMARK  114  A    between atoms: _277  and  _278
REMARK  115  A    between atoms: _278  and  _279
REMARK  116  A    between atoms: _288  and  _290
REMARK  117  A    between atoms: _290  and  _291
REMARK  118  A    between atoms: _290  and  _293
REMARK  119  A    between atoms: _293  and  _294
REMARK  120  A    between atoms: _294  and  _295
REMARK  121  A    between atoms: _295  and  _296
REMARK  122  A    between atoms: _305  and  _307
REMARK  123  A    between atoms: _307  and  _308
REMARK  124  A    between atoms: _307  and  _310
REMARK  125  A    between atoms: _310  and  _311
REMARK  126  A    between atoms: _314  and  _316
REMARK  127  A    between atoms: _316  and  _317
REMARK  128  A    between atoms: _316  and  _319
REMARK  129  A    between atoms: _319  and  _320
REMARK  130  A    between atoms: _323  and  _325
REMARK  131  A    between atoms: _325  and  _326
REMARK  132  A    between atoms: _325  and  _328
REMARK  133  A    between atoms: _328  and  _329
REMARK  134  A    between atoms: _332  and  _334
REMARK  135  A    between atoms: _334  and  _335
REMARK  136  A    between atoms: _334  and  _337
REMARK  137  A    between atoms: _337  and  _338
REMARK  138  A    between atoms: _341  and  _343
REMARK  139  A    between atoms: _343  and  _344
REMARK  140  A    between atoms: _343  and  _346
REMARK  141  A    between atoms: _346  and  _347
REMARK  142  A    between atoms: _350  and  _352
REMARK  143  A    between atoms: _352  and  _353
REMARK  144  A    between atoms: _355  and  _357
REMARK  145  A    between atoms: _357  and  _358
REMARK  146  A    between atoms: _361  and  _363
REMARK  147  A    between atoms: _363  and  _364
REMARK  148  A    between atoms: _363  and  _366
REMARK  149  A    between atoms: _366  and  _367
REMARK  150  A    between atoms: _370  and  _372
REMARK  151  A    between atoms: _372  and  _373
REMARK  152  A    between atoms: _372  and  _375
REMARK  153  A    between atoms: _375  and  _376
REMARK  154  A    between atoms: _379  and  _381
REMARK  155  A    between atoms: _381  and  _382
REMARK  156  A    between atoms: _381  and  _384
REMARK  157  A    between atoms: _384  and  _385
REMARK  158  A    between atoms: _388  and  _390
REMARK  159  A    between atoms: _390  and  _391
REMARK  160  A    between atoms: _390  and  _393
REMARK  161  A    between atoms: _396  and  _398
REMARK  162  A    between atoms: _398  and  _399
REMARK  163  A    between atoms: _398  and  _401
REMARK  164  A    between atoms: _401  and  _402
REMARK  165  A    between atoms: _402  and  _403
REMARK  166  A    between atoms: _403  and  _404
REMARK  167  A    between atoms: _404  and  _405
REMARK  168  A    between atoms: _409  and  _411
REMARK  169  A    between atoms: _411  and  _412
REMARK  170  A    between atoms: _411  and  _414
REMARK  171  A    between atoms: _414  and  _415
REMARK  172  A    between atoms: _415  and  _416
REMARK  173  A    between atoms: _418  and  _420
REMARK  174  A    between atoms: _420  and  _421
REMARK  175  A    between atoms: _420  and  _423
REMARK  176  A    between atoms: _423  and  _424
REMARK  177  A    between atoms: _427  and  _429
REMARK  178  A    between atoms: _429  and  _430
REMARK  179  A    between atoms: _432  and  _434
REMARK  180  A    between atoms: _434  and  _435
REMARK  181  A    between atoms: _437  and  _439
REMARK  182  A    between atoms: _439  and  _440
REMARK  183  A    between atoms: _439  and  _442
REMARK  184  A    between atoms: _442  and  _443
REMARK  185  A    between atoms: _446  and  _448
REMARK  186  A    between atoms: _448  and  _449
REMARK  187  A    between atoms: _451  and  _453
REMARK  188  A    between atoms: _453  and  _454
REMARK  189  A    between atoms: _456  and  _458
REMARK  190  A    between atoms: _458  and  _459
REMARK  191  A    between atoms: _458  and  _461
REMARK  192  A    between atoms: _461  and  _462
REMARK  193  A    between atoms: _468  and  _470
REMARK  194  A    between atoms: _470  and  _471
REMARK  195  A    between atoms: _470  and  _473
REMARK  196  A    between atoms: _473  and  _474
REMARK  197  A    between atoms: _477  and  _479
REMARK  198  A    between atoms: _479  and  _480
REMARK  199  A    between atoms: _479  and  _482
REMARK  200  A    between atoms: _482  and  _483
REMARK  201  A    between atoms: _487  and  _488
REMARK  202  A    between atoms: _493  and  _495
REMARK  203  A    between atoms: _495  and  _496
REMARK  204  A    between atoms: _495  and  _498
REMARK  205  A    between atoms: _498  and  _499
REMARK  206  A    between atoms: _503  and  _504
REMARK  207  A    between atoms: _509  and  _511
REMARK  208  A    between atoms: _511  and  _512
REMARK  209  A    between atoms: _511  and  _514
REMARK  210  A    between atoms: _517  and  _519
REMARK  211  A    between atoms: _519  and  _520
REMARK  212  A    between atoms: _519  and  _522
REMARK  213  A    between atoms: _522  and  _523
REMARK  214  A    between atoms: _528  and  _530
REMARK  215  A    between atoms: _530  and  _531
REMARK  216  A    between atoms: _530  and  _533
REMARK  217  A    between atoms: _533  and  _534
REMARK  218  A    between atoms: _537  and  _539
REMARK  219  A    between atoms: _539  and  _540
REMARK  220  A    between atoms: _539  and  _542
REMARK  221  A    between atoms: _542  and  _543
REMARK  222  A    between atoms: _546  and  _548
REMARK  223  A    between atoms: _548  and  _549
REMARK  224  A    between atoms: _551  and  _553
REMARK  225  A    between atoms: _553  and  _554
REMARK  226  A    between atoms: _553  and  _556
REMARK  227  A    between atoms: _556  and  _557
REMARK  228  A    between atoms: _557  and  _558
REMARK  229  A    between atoms: _558  and  _559
REMARK                            x       y       z     vdW  Elec       q    Type
REMARK                         _______ _______ _______ _____ _____    ______ ____
ROOT
ATOM      1  C   GLY A   5       4.585   3.876  16.037  0.00  0.00    +0.243 C 
ATOM      2  N   ALA A   6       3.297   4.039  16.279  0.00  0.00    -0.297 N 
ATOM      3  H   ALA A   6       2.967   4.212  17.250  0.00  0.00    +0.150 HD
ATOM      4  O   GLY A   5       5.010   3.549  14.946  0.00  0.00    -0.273 OA
ENDROOT
BRANCH   2   5
ATOM      5  CA  ALA A   6       2.337   3.976  15.182  0.00  0.00    +0.149 C 
ATOM      6  CB  ALA A   6       1.223   2.960  15.460  0.00  0.00    +0.031 C 
BRANCH   5   7
ATOM      7  C   ALA A   6       1.673   5.330  14.889  0.00  0.00    +0.241 C 
ATOM      8  O   ALA A   6       1.155   6.011  15.767  0.00  0.00    -0.273 OA
ATOM      9  N   ASP A   7       1.659   5.708  13.610  0.00  0.00    -0.297 N 
ATOM     10  H   ASP A   7       2.169   5.178  12.875  0.00  0.00    +0.150 HD
BRANCH   9  11
ATOM     11  CA  ASP A   7       0.883   6.915  13.298  0.00  0.00    +0.160 C 
BRANCH  11  12
ATOM     12  C   ASP A   7      -0.636   6.738  13.375  0.00  0.00    +0.241 C 
ATOM     13  O   ASP A   7      -1.388   7.623  13.728  0.00  0.00    -0.273 OA
ATOM     14  N   ASP A   8      -1.072   5.541  13.018  0.00  0.00    -0.297 N 
ATOM     15  H   ASP A   8      -0.393   4.787  12.792  0.00  0.00    +0.150 HD
BRANCH  14  16
ATOM     16  CA  ASP A   8      -2.505   5.278  12.941  0.00  0.00    +0.160 C 
BRANCH  16  17
ATOM     17  C   ASP A   8      -2.968   4.147  13.849  0.00  0.00    +0.241 C 
ATOM     18  O   ASP A   8      -2.221   3.366  14.397  0.00  0.00    -0.273 OA
ATOM     19  N   THR A   9      -4.266   4.108  13.987  0.00  0.00    -0.295 N 
ATOM     20  H   THR A   9      -4.826   4.843  13.510  0.00  0.00    +0.150 HD
BRANCH  19  21
ATOM     21  CA  THR A   9      -4.988   3.097  14.770  0.00  0.00    +0.176 C 
BRANCH  21  22
ATOM     22  C   THR A   9      -5.549   2.027  13.853  0.00  0.00    +0.243 C 
ATOM     23  N   VAL A  10      -5.060   0.831  14.167  0.00  0.00    -0.298 N 
ATOM     24  H   VAL A  10      -4.390   0.772  14.960  0.00  0.00    +0.150 HD
ATOM     25  O   THR A   9      -6.324   2.260  12.928  0.00  0.00    -0.273 OA
BRANCH  23  26
ATOM     26  CA  VAL A  10      -5.405  -0.408  13.468  0.00  0.00    +0.137 C 
BRANCH  26  27
ATOM     27  CB  VAL A  10      -4.176  -1.018  12.784  0.00  0.00    +0.026 C 
ATOM     28  CG2 VAL A  10      -3.322   0.041  12.143  0.00  0.00    +0.002 C 
ATOM     29  CG1 VAL A  10      -4.641  -1.997  11.694  0.00  0.00    +0.002 C 
ENDBRANCH  26  27
BRANCH  26  30
ATOM     30  C   VAL A  10      -6.015  -1.474  14.380  0.00  0.00    +0.227 C 
ATOM     31  O   VAL A  10      -5.389  -2.001  15.285  0.00  0.00    -0.286 OA
ENDBRANCH  26  30
ENDBRANCH  23  26
ENDBRANCH  21  22
BRANCH  21  32
ATOM     32  CB  THR A   9      -6.150   3.756  15.611  0.00  0.00    +0.137 C 
ATOM     33  CG2 THR A   9      -7.026   2.778  16.399  0.00  0.00    +0.034 C 
BRANCH  32  34
ATOM     34  OG1 THR A   9      -5.577   4.717  16.518  0.00  0.00    -0.382 OA
ATOM     35  HG1 THR A   9      -5.099   5.413  16.001  0.00  0.00    +0.210 HD
ENDBRANCH  32  34
ENDBRANCH  21  32
ENDBRANCH  19  21
ENDBRANCH  16  17
BRANCH  16  36
ATOM     36  CB  ASP A   8      -2.862   4.866  11.505  0.00  0.00    +0.143 C 
BRANCH  36  37
ATOM     37  CG  ASP A   8      -2.384   5.891  10.479  0.00  0.00    +0.367 C 
ATOM     38  OD2 ASP A   8      -2.964   6.959  10.399  0.00  0.00    -0.246 OA
ATOM     39  OD1 ASP A   8      -1.409   5.626   9.781  0.00  0.00    -0.246 OA
ENDBRANCH  36  37
ENDBRANCH  16  36
ENDBRANCH  14  16
ENDBRANCH  11  12
BRANCH  11  40
ATOM     40  CB  ASP A   7       1.129   7.374  11.866  0.00  0.00    +0.143 C 
BRANCH  40  41
ATOM     41  CG  ASP A   7       2.518   7.902  11.605  0.00  0.00    +0.367 C 
ATOM     42  OD2 ASP A   7       3.383   7.845  12.461  0.00  0.00    -0.246 OA
ATOM     43  OD1 ASP A   7       2.719   8.388  10.506  0.00  0.00    -0.246 OA
ENDBRANCH  40  41
ENDBRANCH  11  40
ENDBRANCH   9  11
ENDBRANCH   5   7
ENDBRANCH   2   5
BRANCH   1  44
ATOM     44  CA  GLY A   5       5.491   4.116  17.214  0.00  0.00    +0.176 C 
BRANCH  44  46
ATOM     45  C   THR A   4       4.504   5.535  18.906  0.00  0.00    +0.243 C 
ATOM     46  N   GLY A   5       4.845   4.315  18.521  0.00  0.00    -0.295 N 
ATOM     47  H   GLY A   5       4.657   3.501  19.140  0.00  0.00    +0.150 HD
ATOM     48  O   THR A   4       4.746   6.505  18.218  0.00  0.00    -0.273 OA
BRANCH  45  49
ATOM     49  CA  THR A   4       3.747   5.618  20.243  0.00  0.00    +0.176 C 
BRANCH  49  51
ATOM     50  C   ASP A   3       2.184   3.803  20.035  0.00  0.00    +0.241 C 
ATOM     51  N   THR A   4       3.176   4.363  20.735  0.00  0.00    -0.295 N 
ATOM     52  H   THR A   4       3.532   3.919  21.605  0.00  0.00    +0.150 HD
ATOM     53  O   ASP A   3       1.771   4.298  19.004  0.00  0.00    -0.273 OA
BRANCH  50  54
ATOM     54  CA  ASP A   3       1.676   2.485  20.575  0.00  0.00    +0.160 C 
BRANCH  54  57
ATOM     55  C   LEU A   2       0.534   2.084  22.622  0.00  0.00    +0.241 C 
ATOM     56  O   LEU A   2       1.599   1.787  23.150  0.00  0.00    -0.273 OA
ATOM     57  N   ASP A   3       0.475   2.580  21.393  0.00  0.00    -0.297 N 
ATOM     58  H   ASP A   3      -0.394   3.019  21.028  0.00  0.00    +0.150 HD
BRANCH  55  59
ATOM     59  CA  LEU A   2      -0.826   1.848  23.297  0.00  0.00    +0.149 C 
BRANCH  59  61
ATOM     60  C   LEU A   1      -1.576  -0.232  22.417  0.00  0.00    +0.238 C 
ATOM     61  N   LEU A   2      -1.154   0.431  23.487  0.00  0.00    -0.297 N 
ATOM     62  H   LEU A   2      -1.061  -0.031  24.414  0.00  0.00    +0.150 HD
ATOM     63  O   LEU A   1      -1.807   0.306  21.343  0.00  0.00    -0.274 OA
BRANCH  60  64
ATOM     64  CA  LEU A   1      -1.748  -1.723  22.595  0.00  0.00    +0.145 C 
BRANCH  64  65
ATOM     65  N   LEU A   1      -3.094  -2.188  22.228  0.00  0.00    -0.238 NA
ATOM     66  H   LEU A   1      -3.301  -2.467  21.248  0.00  0.00    +0.142 HD
ENDBRANCH  64  65
BRANCH  64  67
ATOM     67  CB  LEU A   1      -0.761  -2.451  21.681  0.00  0.00    +0.026 C 
BRANCH  67  68
ATOM     68  CG  LEU A   1       0.752  -2.261  21.844  0.00  0.00    +0.002 C 
ATOM     69  CD2 LEU A   1       1.302  -3.007  23.067  0.00  0.00    +0.000 C 
ATOM     70  CD1 LEU A   1       1.438  -2.825  20.586  0.00  0.00    +0.000 C 
ENDBRANCH  67  68
ENDBRANCH  64  67
ENDBRANCH  60  64
ENDBRANCH  59  61
BRANCH  59  71
ATOM     71  CB  LEU A   2      -0.862   2.546  24.669  0.00  0.00    +0.029 C 
BRANCH  71  72
ATOM     72  CG  LEU A   2      -2.183   2.389  25.423  0.00  0.00    +0.002 C 
ATOM     73  CD2 LEU A   2      -2.079   3.087  26.786  0.00  0.00    +0.000 C 
ATOM     74  CD1 LEU A   2      -3.309   2.986  24.608  0.00  0.00    +0.000 C 
ENDBRANCH  71  72
ENDBRANCH  59  71
ENDBRANCH  55  59
ENDBRANCH  54  57
BRANCH  54  75
ATOM     75  CB  ASP A   3       1.337   1.515  19.445  0.00  0.00    +0.143 C 
BRANCH  75  76
ATOM     76  CG  ASP A   3       2.511   1.076  18.571  0.00  0.00    +0.367 C 
ATOM     77  OD2 ASP A   3       3.667   1.441  18.783  0.00  0.00    -0.246 OA
ATOM     78  OD1 ASP A   3       2.231   0.324  17.658  0.00  0.00    -0.246 OA
ENDBRANCH  75  76
ENDBRANCH  54  75
ENDBRANCH  50  54
ENDBRANCH  49  51
BRANCH  49  79
ATOM     79  CB  THR A   4       4.662   6.215  21.294  0.00  0.00    +0.137 C 
ATOM     80  CG2 THR A   4       3.900   6.448  22.605  0.00  0.00    +0.034 C 
BRANCH  79  81
ATOM     81  OG1 THR A   4       5.746   5.308  21.512  0.00  0.00    -0.382 OA
ATOM     82  HG1 THR A   4       6.241   5.177  20.665  0.00  0.00    +0.210 HD
ENDBRANCH  79  81
ENDBRANCH  49  79
ENDBRANCH  45  49
ENDBRANCH  44  46
ENDBRANCH   1  44
TORSDOF 35
REMARK  Name = ../refined-set-2016/1hvi/1hvi_pocket.pdb
REMARK  229 active torsions:
REMARK  status: ('A' for Active; 'I' for Inactive)
REMARK    1  A    between atoms: _1  and  _3
REMARK    2  A    between atoms: _3  and  _4
REMARK    3  A    between atoms: _3  and  _6
REMARK    4  A    between atoms: _6  and  _7
REMARK    5  A    between atoms: _7  and  _8
REMARK    6  A    between atoms: _8  and  _9
REMARK    7  A    between atoms: _19  and  _20
REMARK    8  A    between atoms: _25  and  _27
REMARK    9  A    between atoms: _27  and  _28
REMARK   10  A    between atoms: _27  and  _30
REMARK   11  A    between atoms: _30  and  _31
REMARK   12  A    between atoms: _34  and  _36
REMARK   13  A    between atoms: _36  and  _37
REMARK   14  A    between atoms: _36  and  _39
REMARK   15  A    between atoms: _39  and  _40
REMARK   16  A    between atoms: _43  and  _45
REMARK   17  A    between atoms: _45  and  _46
REMARK   18  A    between atoms: _45  and  _48
REMARK   19  A    between atoms: _48  and  _49
REMARK   20  A    between atoms: _52  and  _54
REMARK   21  A    between atoms: _54  and  _55
REMARK   22  A    between atoms: _54  and  _57
REMARK   23  A    between atoms: _57  and  _58
REMARK   24  A    between atoms: _61  and  _63
REMARK   25  A    between atoms: _63  and  _64
REMARK   26  A    between atoms: _63  and  _66
REMARK   27  A    between atoms: _66  and  _67
REMARK   28  A    between atoms: _70  and  _72
REMARK   29  A    between atoms: _72  and  _73
REMARK   30  A    between atoms: _75  and  _77
REMARK   31  A    between atoms: _77  and  _78
REMARK   32  A    between atoms: _81  and  _83
REMARK   33  A    between atoms: _83  and  _84
REMARK   34  A    between atoms: _83  and  _86
REMARK   35  A    between atoms: _86  and  _87
REMARK   36  A    between atoms: _90  and  _92
REMARK   37  A    between atoms: _92  and  _93
REMARK   38  A    between atoms: _92  and  _95
REMARK   39  A    between atoms: _95  and  _96
REMARK   40  A    between atoms: _99  and  _101
REMARK   41  A    between atoms: _101  and  _102
REMARK   42  A    between atoms: _101  and  _104
REMARK   43  A    between atoms: _104  and  _105
REMARK   44  A    between atoms: _108  and  _110
REMARK   45  A    between atoms: _110  and  _111
REMARK   46  A    between atoms: _110  and  _113
REMARK   47  A    between atoms: _116  and  _118
REMARK   48  A    between atoms: _118  and  _119
REMARK   49  A    between atoms: _118  and  _121
REMARK   50  A    between atoms: _121  and  _122
REMARK   51  A    between atoms: _122  and  _123
REMARK   52  A    between atoms: _123  and  _124
REMARK   53  A    between atoms: _124  and  _125
REMARK   54  A    between atoms: _129  and  _131
REMARK   55  A    between atoms: _131  and  _132
REMARK   56  A    between atoms: _131  and  _134
REMARK   57  A    between atoms: _134  and  _135
REMARK   58  A    between atoms: _135  and  _136
REMARK   59  A    between atoms: _138  and  _140
REMARK   60  A    between atoms: _140  and  _141
REMARK   61  A    between atoms: _140  and  _143
REMARK   62  A    between atoms: _143  and  _144
REMARK   63  A    between atoms: _147  and  _149
REMARK   64  A    between atoms: _149  and  _150
REMARK   65  A    between atoms: _152  and  _154
REMARK   66  A    between atoms: _154  and  _155
REMARK   67  A    between atoms: _157  and  _159
REMARK   68  A    between atoms: _159  and  _160
REMARK   69  A    between atoms: _159  and  _162
REMARK   70  A    between atoms: _162  and  _163
REMARK   71  A    between atoms: _166  and  _168
REMARK   72  A    between atoms: _168  and  _169
REMARK   73  A    between atoms: _171  and  _173
REMARK   74  A    between atoms: _173  and  _174
REMARK   75  A    between atoms: _176  and  _178
REMARK   76  A    between atoms: _178  and  _179
REMARK   77  A    between atoms: _178  and  _181
REMARK   78  A    between atoms: _181  and  _182
REMARK   79  A    between atoms: _188  and  _190
REMARK   80  A    between atoms: _190  and  _191
REMARK   81  A    between atoms: _190  and  _193
REMARK   82  A    between atoms: _193  and  _194
REMARK   83  A    between atoms: _197  and  _199
REMARK   84  A    between atoms: _199  and  _200
REMARK   85  A    between atoms: _199  and  _202
REMARK   86  A    between atoms: _202  and  _203
REMARK   87  A    between atoms: _207  and  _208
REMARK   88  A    between atoms: _213  and  _215
REMARK   89  A    between atoms: _215  and  _216
REMARK   90  A    between atoms: _215  and  _218
REMARK   91  A    between atoms: _218  and  _219
REMARK   92  A    between atoms: _223  and  _224
REMARK   93  A    between atoms: _229  and  _231
REMARK   94  A    between atoms: _231  and  _232
REMARK   95  A    between atoms: _231  and  _234
REMARK   96  A    between atoms: _237  and  _239
REMARK   97  A    between atoms: _239  and  _240
REMARK   98  A    between atoms: _239  and  _242
REMARK   99  A    between atoms: _242  and  _243
REMARK  100  A    between atoms: _248  and  _250
REMARK  101  A    between atoms: _250  and  _251
REMARK  102  A    between atoms: _250  and  _253
REMARK  103  A    between atoms: _253  and  _254
REMARK  104  A    between atoms: _257  and  _259
REMARK  105  A    between atoms: _259  and  _260
REMARK  106  A    between atoms: _259  and  _262
REMARK  107  A    between atoms: _262  and  _263
REMARK  108  A    between atoms: _266  and  _268
REMARK  109  A    between atoms: _268  and  _269
REMARK  110  A    between atoms: _271  and  _273
REMARK  111  A    between atoms: _273  and  _274
REMARK  112  A    between atoms: _273  and  _276
REMARK  113  A    between atoms: _276  and  _277
REMARK  114  A    between atoms: _277  and  _278
REMARK  115  A    between atoms: _278  and  _279
REMARK  116  A    between atoms: _288  and  _290
REMARK  117  A    between atoms: _290  and  _291
REMARK  118  A    between atoms: _290  and  _293
REMARK  119  A    between atoms: _293  and  _294
REMARK  120  A    between atoms: _294  and  _295
REMARK  121  A    between atoms: _295  and  _296
REMARK  122  A    between atoms: _305  and  _307
REMARK  123  A    between atoms: _307  and  _308
REMARK  124  A    between atoms: _307  and  _310
REMARK  125  A    between atoms: _310  and  _311
REMARK  126  A    between atoms: _314  and  _316
REMARK  127  A    between atoms: _316  and  _317
REMARK  128  A    between atoms: _316  and  _319
REMARK  129  A    between atoms: _319  and  _320
REMARK  130  A    between atoms: _323  and  _325
REMARK  131  A    between atoms: _325  and  _326
REMARK  132  A    between atoms: _325  and  _328
REMARK  133  A    between atoms: _328  and  _329
REMARK  134  A    between atoms: _332  and  _334
REMARK  135  A    between atoms: _334  and  _335
REMARK  136  A    between atoms: _334  and  _337
REMARK  137  A    between atoms: _337  and  _338
REMARK  138  A    between atoms: _341  and  _343
REMARK  139  A    between atoms: _343  and  _344
REMARK  140  A    between atoms: _343  and  _346
REMARK  141  A    between atoms: _346  and  _347
REMARK  142  A    between atoms: _350  and  _352
REMARK  143  A    between atoms: _352  and  _353
REMARK  144  A    between atoms: _355  and  _357
REMARK  145  A    between atoms: _357  and  _358
REMARK  146  A    between atoms: _361  and  _363
REMARK  147  A    between atoms: _363  and  _364
REMARK  148  A    between atoms: _363  and  _366
REMARK  149  A    between atoms: _366  and  _367
REMARK  150  A    between atoms: _370  and  _372
REMARK  151  A    between atoms: _372  and  _373
REMARK  152  A    between atoms: _372  and  _375
REMARK  153  A    between atoms: _375  and  _376
REMARK  154  A    between atoms: _379  and  _381
REMARK  155  A    between atoms: _381  and  _382
REMARK  156  A    between atoms: _381  and  _384
REMARK  157  A    between atoms: _384  and  _385
REMARK  158  A    between atoms: _388  and  _390
REMARK  159  A    between atoms: _390  and  _391
REMARK  160  A    between atoms: _390  and  _393
REMARK  161  A    between atoms: _396  and  _398
REMARK  162  A    between atoms: _398  and  _399
REMARK  163  A    between atoms: _398  and  _401
REMARK  164  A    between atoms: _401  and  _402
REMARK  165  A    between atoms: _402  and  _403
REMARK  166  A    between atoms: _403  and  _404
REMARK  167  A    between atoms: _404  and  _405
REMARK  168  A    between atoms: _409  and  _411
REMARK  169  A    between atoms: _411  and  _412
REMARK  170  A    between atoms: _411  and  _414
REMARK  171  A    between atoms: _414  and  _415
REMARK  172  A    between atoms: _415  and  _416
REMARK  173  A    between atoms: _418  and  _420
REMARK  174  A    between atoms: _420  and  _421
REMARK  175  A    between atoms: _420  and  _423
REMARK  176  A    between atoms: _423  and  _424
REMARK  177  A    between atoms: _427  and  _429
REMARK  178  A    between atoms: _429  and  _430
REMARK  179  A    between atoms: _432  and  _434
REMARK  180  A    between atoms: _434  and  _435
REMARK  181  A    between atoms: _437  and  _439
REMARK  182  A    between atoms: _439  and  _440
REMARK  183  A    between atoms: _439  and  _442
REMARK  184  A    between atoms: _442  and  _443
REMARK  185  A    between atoms: _446  and  _448
REMARK  186  A    between atoms: _448  and  _449
REMARK  187  A    between atoms: _451  and  _453
REMARK  188  A    between atoms: _453  and  _454
REMARK  189  A    between atoms: _456  and  _458
REMARK  190  A    between atoms: _458  and  _459
REMARK  191  A    between atoms: _458  and  _461
REMARK  192  A    between atoms: _461  and  _462
REMARK  193  A    between atoms: _468  and  _470
REMARK  194  A    between atoms: _470  and  _471
REMARK  195  A    between atoms: _470  and  _473
REMARK  196  A    between atoms: _473  and  _474
REMARK  197  A    between atoms: _477  and  _479
REMARK  198  A    between atoms: _479  and  _480
REMARK  199  A    between atoms: _479  and  _482
REMARK  200  A    between atoms: _482  and  _483
REMARK  201  A    between atoms: _487  and  _488
REMARK  202  A    between atoms: _493  and  _495
REMARK  203  A    between atoms: _495  and  _496
REMARK  204  A    between atoms: _495  and  _498
REMARK  205  A    between atoms: _498  and  _499
REMARK  206  A    between atoms: _503  and  _504
REMARK  207  A    between atoms: _509  and  _511
REMARK  208  A    between atoms: _511  and  _512
REMARK  209  A    between atoms: _511  and  _514
REMARK  210  A    between atoms: _517  and  _519
REMARK  211  A    between atoms: _519  and  _520
REMARK  212  A    between atoms: _519  and  _522
REMARK  213  A    between atoms: _522  and  _523
REMARK  214  A    between atoms: _528  and  _530
REMARK  215  A    between atoms: _530  and  _531
REMARK  216  A    between atoms: _530  and  _533
REMARK  217  A    between atoms: _533  and  _534
REMARK  218  A    between atoms: _537  and  _539
REMARK  219  A    between atoms: _539  and  _540
REMARK  220  A    between atoms: _539  and  _542
REMARK  221  A    between atoms: _542  and  _543
REMARK  222  A    between atoms: _546  and  _548
REMARK  223  A    between atoms: _548  and  _549
REMARK  224  A    between atoms: _551  and  _553
REMARK  225  A    between atoms: _553  and  _554
REMARK  226  A    between atoms: _553  and  _556
REMARK  227  A    between atoms: _556  and  _557
REMARK  228  A    between atoms: _557  and  _558
REMARK  229  A    between atoms: _558  and  _559
REMARK                            x       y       z     vdW  Elec       q    Type
REMARK                         _______ _______ _______ _____ _____    ______ ____
ROOT
ATOM      1  C   GLY A   5       6.200  -2.487   8.475  0.00  0.00    +0.243 C 
ATOM      2  N   ILE A   6       6.738  -3.048   9.544  0.00  0.00    -0.297 N 
ATOM      3  H   ILE A   6       6.499  -2.712  10.499  0.00  0.00    +0.150 HD
ATOM      4  O   GLY A   5       6.551  -2.813   7.353  0.00  0.00    -0.273 OA
ENDROOT
BRANCH   2   5
ATOM      5  CA  ILE A   6       7.680  -4.156   9.353  0.00  0.00    +0.149 C 
BRANCH   5   6
ATOM      6  C   ILE A   6       7.004  -5.325   8.643  0.00  0.00    +0.241 C 
ATOM      7  O   ILE A   6       5.877  -5.743   8.887  0.00  0.00    -0.273 OA
ATOM      8  N   GLY A   7       7.739  -5.800   7.678  0.00  0.00    -0.295 N 
ATOM      9  H   GLY A   7       8.669  -5.398   7.445  0.00  0.00    +0.150 HD
BRANCH   8  10
ATOM     10  CA  GLY A   7       7.178  -6.931   6.943  0.00  0.00    +0.176 C 
BRANCH  10  11
ATOM     11  C   GLY A   7       6.443  -6.590   5.675  0.00  0.00    +0.243 C 
ATOM     12  N   GLY A   8       5.992  -5.341   5.596  0.00  0.00    -0.295 N 
ATOM     13  H   GLY A   8       6.165  -4.672   6.373  0.00  0.00    +0.150 HD
ATOM     14  O   GLY A   7       6.284  -7.419   4.802  0.00  0.00    -0.273 OA
BRANCH  12  15
ATOM     15  CA  GLY A   8       5.253  -4.917   4.411  0.00  0.00    +0.176 C 
BRANCH  15  16
ATOM     16  C   GLY A   8       3.914  -4.232   4.658  0.00  0.00    +0.243 C 
ATOM     17  O   GLY A   8       3.671  -3.558   5.656  0.00  0.00    -0.273 OA
ATOM     18  N   PHE A   9       3.057  -4.404   3.657  0.00  0.00    -0.297 N 
ATOM     19  H   PHE A   9       3.306  -5.064   2.892  0.00  0.00    +0.150 HD
BRANCH  18  20
ATOM     20  CA  PHE A   9       1.760  -3.691   3.590  0.00  0.00    +0.153 C 
BRANCH  20  21
ATOM     21  C   PHE A   9       0.582  -4.607   3.793  0.00  0.00    +0.241 C 
ATOM     22  N   ILE A  10      -0.428  -4.073   4.474  0.00  0.00    -0.298 N 
ATOM     23  H   ILE A  10      -0.314  -3.176   4.989  0.00  0.00    +0.150 HD
ATOM     24  O   PHE A   9       0.564  -5.742   3.335  0.00  0.00    -0.273 OA
BRANCH  22  25
ATOM     25  CA  ILE A  10      -1.699  -4.786   4.475  0.00  0.00    +0.137 C 
BRANCH  25  26
ATOM     26  C   ILE A  10      -2.854  -3.934   3.968  0.00  0.00    +0.227 C 
ATOM     27  O   ILE A  10      -2.840  -2.713   3.948  0.00  0.00    -0.286 OA
ENDBRANCH  25  26
BRANCH  25  28
ATOM     28  CB  ILE A  10      -2.022  -5.360   5.877  0.00  0.00    +0.026 C 
ATOM     29  CG2 ILE A  10      -1.012  -6.425   6.302  0.00  0.00    +0.002 C 
BRANCH  28  30
ATOM     30  CG1 ILE A  10      -2.126  -4.310   6.968  0.00  0.00    +0.002 C 
ATOM     31  CD1 ILE A  10      -2.842  -4.794   8.227  0.00  0.00    +0.000 C 
ENDBRANCH  28  30
ENDBRANCH  25  28
ENDBRANCH  22  25
ENDBRANCH  20  21
BRANCH  20  32
ATOM     32  CB  PHE A   9       1.515  -3.043   2.206  0.00  0.00    +0.055 C 
BRANCH  32  33
ATOM     33  CG  PHE A   9       2.393  -1.843   2.000  0.00  0.00    -0.020 A 
ATOM     34  CD2 PHE A   9       1.940  -0.574   2.433  0.00  0.00    -0.004 A 
ATOM     35  CE2 PHE A   9       2.799   0.547   2.337  0.00  0.00    -0.000 A 
ATOM     36  CZ  PHE A   9       4.100   0.389   1.800  0.00  0.00    -0.000 A 
ATOM     37  CE1 PHE A   9       4.528  -0.885   1.361  0.00  0.00    -0.000 A 
ATOM     38  CD1 PHE A   9       3.675  -2.002   1.457  0.00  0.00    -0.004 A 
ENDBRANCH  32  33
ENDBRANCH  20  32
ENDBRANCH  18  20
ENDBRANCH  15  16
ENDBRANCH  12  15
ENDBRANCH  10  11
ENDBRANCH   8  10
ENDBRANCH   5   6
BRANCH   5  39
ATOM     39  CB  ILE A   6       8.211  -4.613  10.722  0.00  0.00    +0.027 C 
ATOM     40  CG2 ILE A   6       8.964  -5.940  10.648  0.00  0.00    +0.002 C 
BRANCH  39  41
ATOM     41  CG1 ILE A   6       9.085  -3.580  11.431  0.00  0.00    +0.002 C 
ATOM     42  CD1 ILE A   6      10.508  -3.439  10.869  0.00  0.00    +0.000 C 
ENDBRANCH  39  41
ENDBRANCH   5  39
ENDBRANCH   2   5
BRANCH   1  43
ATOM     43  CA  GLY A   5       5.085  -1.483   8.698  0.00  0.00    +0.176 C 
BRANCH  43  46
ATOM     44  C   GLY A   4       3.273  -0.530   7.471  0.00  0.00    +0.243 C 
ATOM     45  O   GLY A   4       3.063   0.316   8.330  0.00  0.00    -0.273 OA
ATOM     46  N   GLY A   5       4.144  -1.495   7.581  0.00  0.00    -0.295 N 
ATOM     47  H   GLY A   5       4.168  -2.264   6.881  0.00  0.00    +0.150 HD
BRANCH  44  48
ATOM     48  CA  GLY A   4       2.583  -0.568   6.129  0.00  0.00    +0.176 C 
BRANCH  48  50
ATOM     49  C   ILE A   3       0.253  -0.323   5.711  0.00  0.00    +0.241 C 
ATOM     50  N   GLY A   4       1.383   0.242   6.036  0.00  0.00    -0.295 N 
ATOM     51  H   GLY A   4       1.423   1.264   6.227  0.00  0.00    +0.150 HD
ATOM     52  O   ILE A   3       0.118  -1.524   5.538  0.00  0.00    -0.273 OA
BRANCH  49  53
ATOM     53  CA  ILE A   3      -0.874   0.661   5.517  0.00  0.00    +0.149 C 
BRANCH  53  55
ATOM     54  C   MET A   2      -2.380   0.977   3.652  0.00  0.00    +0.241 C 
ATOM     55  N   ILE A   3      -1.888   0.157   4.568  0.00  0.00    -0.297 N 
ATOM     56  H   ILE A   3      -2.212  -0.830   4.619  0.00  0.00    +0.150 HD
ATOM     57  O   MET A   2      -2.183   2.180   3.656  0.00  0.00    -0.273 OA
BRANCH  54  58
ATOM     58  CA  MET A   2      -3.195   0.332   2.550  0.00  0.00    +0.149 C 
BRANCH  58  61
ATOM     59  C   LYS A   1      -5.579   0.687   2.411  0.00  0.00    +0.238 C 
ATOM     60  O   LYS A   1      -5.791  -0.466   2.728  0.00  0.00    -0.274 OA
ATOM     61  N   MET A   2      -4.365   1.146   2.187  0.00  0.00    -0.297 N 
ATOM     62  H   MET A   2      -4.234   2.083   1.754  0.00  0.00    +0.150 HD
BRANCH  59  63
ATOM     63  CA  LYS A   1      -6.709   1.678   2.287  0.00  0.00    +0.145 C 
BRANCH  63  64
ATOM     64  N   LYS A   1      -8.006   1.021   2.212  0.00  0.00    -0.238 NA
ATOM     65  H   LYS A   1      -8.214   0.202   2.818  0.00  0.00    +0.142 HD
ENDBRANCH  63  64
BRANCH  63  66
ATOM     66  CB  LYS A   1      -6.719   2.573   3.515  0.00  0.00    +0.026 C 
BRANCH  66  67
ATOM     67  CG  LYS A   1      -5.823   3.789   3.345  0.00  0.00    -0.000 C 
BRANCH  67  68
ATOM     68  CD  LYS A   1      -5.680   4.576   4.645  0.00  0.00    -0.024 C 
BRANCH  68  69
ATOM     69  CE  LYS A   1      -4.467   4.205   5.508  0.00  0.00    -0.086 C 
BRANCH  69  70
ATOM     70  NZ  LYS A   1      -3.241   4.881   5.027  0.00  0.00    +0.380 N 
ATOM     71  HZ1 LYS A   1      -2.438   4.611   5.630  0.00  0.00    -0.089 HD
ATOM     72  HZ2 LYS A   1      -3.376   5.911   5.068  0.00  0.00    -0.089 HD
ATOM     73  HZ3 LYS A   1      -3.051   4.594   4.046  0.00  0.00    -0.089 HD
ENDBRANCH  69  70
ENDBRANCH  68  69
ENDBRANCH  67  68
ENDBRANCH  66  67
ENDBRANCH  63  66
ENDBRANCH  59  63
ENDBRANCH  58  61
BRANCH  58  74
ATOM     74  CB  MET A   2      -2.148   0.233   1.436  0.00  0.00    +0.041 C 
BRANCH  74  75
ATOM     75  CG  MET A   2      -2.672  -0.252   0.091  0.00  0.00    +0.060 C 
BRANCH  75  76
ATOM     76  SD  MET A   2      -2.906  -2.009   0.093  0.00  0.00    -0.139 S 
ATOM     77  CE  MET A   2      -1.157  -2.384   0.129  0.00  0.00    +0.069 C 
ENDBRANCH  75  76
ENDBRANCH  74  75
ENDBRANCH  58  74
ENDBRANCH  54  58
ENDBRANCH  53  55
BRANCH  53  78
ATOM     78  CB  ILE A   3      -1.407   1.007   6.914  0.00  0.00    +0.027 C 
ATOM     79  CG2 ILE A   3      -1.837   2.453   7.112  0.00  0.00    +0.002 C 
BRANCH  78  80
ATOM     80  CG1 ILE A   3      -2.519   0.094   7.342  0.00  0.00    +0.002 C 
ATOM     81  CD1 ILE A   3      -1.927  -0.968   8.237  0.00  0.00    +0.000 C 
ENDBRANCH  78  80
ENDBRANCH  53  78
ENDBRANCH  49  53
ENDBRANCH  48  50
ENDBRANCH  44  48
ENDBRANCH  43  46
ENDBRANCH   1  43
TORSDOF 36
REMARK  Name = ../refined-set-2016/1hvi/1hvi_pocket.pdb
REMARK  229 active torsions:
REMARK  status: ('A' for Active; 'I' for Inactive)
REMARK    1  A    between atoms: _1  and  _3
REMARK    2  A    between atoms: _3  and  _4
REMARK    3  A    between atoms: _3  and  _6
REMARK    4  A    between atoms: _6  and  _7
REMARK    5  A    between atoms: _7  and  _8
REMARK    6  A    between atoms: _8  and  _9
REMARK    7  A    between atoms: _19  and  _20
REMARK    8  A    between atoms: _25  and  _27
REMARK    9  A    between atoms: _27  and  _28
REMARK   10  A    between atoms: _27  and  _30
REMARK   11  A    between atoms: _30  and  _31
REMARK   12  A    between atoms: _34  and  _36
REMARK   13  A    between atoms: _36  and  _37
REMARK   14  A    between atoms: _36  and  _39
REMARK   15  A    between atoms: _39  and  _40
REMARK   16  A    between atoms: _43  and  _45
REMARK   17  A    between atoms: _45  and  _46
REMARK   18  A    between atoms: _45  and  _48
REMARK   19  A    between atoms: _48  and  _49
REMARK   20  A    between atoms: _52  and  _54
REMARK   21  A    between atoms: _54  and  _55
REMARK   22  A    between atoms: _54  and  _57
REMARK   23  A    between atoms: _57  and  _58
REMARK   24  A    between atoms: _61  and  _63
REMARK   25  A    between atoms: _63  and  _64
REMARK   26  A    between atoms: _63  and  _66
REMARK   27  A    between atoms: _66  and  _67
REMARK   28  A    between atoms: _70  and  _72
REMARK   29  A    between atoms: _72  and  _73
REMARK   30  A    between atoms: _75  and  _77
REMARK   31  A    between atoms: _77  and  _78
REMARK   32  A    between atoms: _81  and  _83
REMARK   33  A    between atoms: _83  and  _84
REMARK   34  A    between atoms: _83  and  _86
REMARK   35  A    between atoms: _86  and  _87
REMARK   36  A    between atoms: _90  and  _92
REMARK   37  A    between atoms: _92  and  _93
REMARK   38  A    between atoms: _92  and  _95
REMARK   39  A    between atoms: _95  and  _96
REMARK   40  A    between atoms: _99  and  _101
REMARK   41  A    between atoms: _101  and  _102
REMARK   42  A    between atoms: _101  and  _104
REMARK   43  A    between atoms: _104  and  _105
REMARK   44  A    between atoms: _108  and  _110
REMARK   45  A    between atoms: _110  and  _111
REMARK   46  A    between atoms: _110  and  _113
REMARK   47  A    between atoms: _116  and  _118
REMARK   48  A    between atoms: _118  and  _119
REMARK   49  A    between atoms: _118  and  _121
REMARK   50  A    between atoms: _121  and  _122
REMARK   51  A    between atoms: _122  and  _123
REMARK   52  A    between atoms: _123  and  _124
REMARK   53  A    between atoms: _124  and  _125
REMARK   54  A    between atoms: _129  and  _131
REMARK   55  A    between atoms: _131  and  _132
REMARK   56  A    between atoms: _131  and  _134
REMARK   57  A    between atoms: _134  and  _135
REMARK   58  A    between atoms: _135  and  _136
REMARK   59  A    between atoms: _138  and  _140
REMARK   60  A    between atoms: _140  and  _141
REMARK   61  A    between atoms: _140  and  _143
REMARK   62  A    between atoms: _143  and  _144
REMARK   63  A    between atoms: _147  and  _149
REMARK   64  A    between atoms: _149  and  _150
REMARK   65  A    between atoms: _152  and  _154
REMARK   66  A    between atoms: _154  and  _155
REMARK   67  A    between atoms: _157  and  _159
REMARK   68  A    between atoms: _159  and  _160
REMARK   69  A    between atoms: _159  and  _162
REMARK   70  A    between atoms: _162  and  _163
REMARK   71  A    between atoms: _166  and  _168
REMARK   72  A    between atoms: _168  and  _169
REMARK   73  A    between atoms: _171  and  _173
REMARK   74  A    between atoms: _173  and  _174
REMARK   75  A    between atoms: _176  and  _178
REMARK   76  A    between atoms: _178  and  _179
REMARK   77  A    between atoms: _178  and  _181
REMARK   78  A    between atoms: _181  and  _182
REMARK   79  A    between atoms: _188  and  _190
REMARK   80  A    between atoms: _190  and  _191
REMARK   81  A    between atoms: _190  and  _193
REMARK   82  A    between atoms: _193  and  _194
REMARK   83  A    between atoms: _197  and  _199
REMARK   84  A    between atoms: _199  and  _200
REMARK   85  A    between atoms: _199  and  _202
REMARK   86  A    between atoms: _202  and  _203
REMARK   87  A    between atoms: _207  and  _208
REMARK   88  A    between atoms: _213  and  _215
REMARK   89  A    between atoms: _215  and  _216
REMARK   90  A    between atoms: _215  and  _218
REMARK   91  A    between atoms: _218  and  _219
REMARK   92  A    between atoms: _223  and  _224
REMARK   93  A    between atoms: _229  and  _231
REMARK   94  A    between atoms: _231  and  _232
REMARK   95  A    between atoms: _231  and  _234
REMARK   96  A    between atoms: _237  and  _239
REMARK   97  A    between atoms: _239  and  _240
REMARK   98  A    between atoms: _239  and  _242
REMARK   99  A    between atoms: _242  and  _243
REMARK  100  A    between atoms: _248  and  _250
REMARK  101  A    between atoms: _250  and  _251
REMARK  102  A    between atoms: _250  and  _253
REMARK  103  A    between atoms: _253  and  _254
REMARK  104  A    between atoms: _257  and  _259
REMARK  105  A    between atoms: _259  and  _260
REMARK  106  A    between atoms: _259  and  _262
REMARK  107  A    between atoms: _262  and  _263
REMARK  108  A    between atoms: _266  and  _268
REMARK  109  A    between atoms: _268  and  _269
REMARK  110  A    between atoms: _271  and  _273
REMARK  111  A    between atoms: _273  and  _274
REMARK  112  A    between atoms: _273  and  _276
REMARK  113  A    between atoms: _276  and  _277
REMARK  114  A    between atoms: _277  and  _278
REMARK  115  A    between atoms: _278  and  _279
REMARK  116  A    between atoms: _288  and  _290
REMARK  117  A    between atoms: _290  and  _291
REMARK  118  A    between atoms: _290  and  _293
REMARK  119  A    between atoms: _293  and  _294
REMARK  120  A    between atoms: _294  and  _295
REMARK  121  A    between atoms: _295  and  _296
REMARK  122  A    between atoms: _305  and  _307
REMARK  123  A    between atoms: _307  and  _308
REMARK  124  A    between atoms: _307  and  _310
REMARK  125  A    between atoms: _310  and  _311
REMARK  126  A    between atoms: _314  and  _316
REMARK  127  A    between atoms: _316  and  _317
REMARK  128  A    between atoms: _316  and  _319
REMARK  129  A    between atoms: _319  and  _320
REMARK  130  A    between atoms: _323  and  _325
REMARK  131  A    between atoms: _325  and  _326
REMARK  132  A    between atoms: _325  and  _328
REMARK  133  A    between atoms: _328  and  _329
REMARK  134  A    between atoms: _332  and  _334
REMARK  135  A    between atoms: _334  and  _335
REMARK  136  A    between atoms: _334  and  _337
REMARK  137  A    between atoms: _337  and  _338
REMARK  138  A    between atoms: _341  and  _343
REMARK  139  A    between atoms: _343  and  _344
REMARK  140  A    between atoms: _343  and  _346
REMARK  141  A    between atoms: _346  and  _347
REMARK  142  A    between atoms: _350  and  _352
REMARK  143  A    between atoms: _352  and  _353
REMARK  144  A    between atoms: _355  and  _357
REMARK  145  A    between atoms: _357  and  _358
REMARK  146  A    between atoms: _361  and  _363
REMARK  147  A    between atoms: _363  and  _364
REMARK  148  A    between atoms: _363  and  _366
REMARK  149  A    between atoms: _366  and  _367
REMARK  150  A    between atoms: _370  and  _372
REMARK  151  A    between atoms: _372  and  _373
REMARK  152  A    between atoms: _372  and  _375
REMARK  153  A    between atoms: _375  and  _376
REMARK  154  A    between atoms: _379  and  _381
REMARK  155  A    between atoms: _381  and  _382
REMARK  156  A    between atoms: _381  and  _384
REMARK  157  A    between atoms: _384  and  _385
REMARK  158  A    between atoms: _388  and  _390
REMARK  159  A    between atoms: _390  and  _391
REMARK  160  A    between atoms: _390  and  _393
REMARK  161  A    between atoms: _396  and  _398
REMARK  162  A    between atoms: _398  and  _399
REMARK  163  A    between atoms: _398  and  _401
REMARK  164  A    between atoms: _401  and  _402
REMARK  165  A    between atoms: _402  and  _403
REMARK  166  A    between atoms: _403  and  _404
REMARK  167  A    between atoms: _404  and  _405
REMARK  168  A    between atoms: _409  and  _411
REMARK  169  A    between atoms: _411  and  _412
REMARK  170  A    between atoms: _411  and  _414
REMARK  171  A    between atoms: _414  and  _415
REMARK  172  A    between atoms: _415  and  _416
REMARK  173  A    between atoms: _418  and  _420
REMARK  174  A    between atoms: _420  and  _421
REMARK  175  A    between atoms: _420  and  _423
REMARK  176  A    between atoms: _423  and  _424
REMARK  177  A    between atoms: _427  and  _429
REMARK  178  A    between atoms: _429  and  _430
REMARK  179  A    between atoms: _432  and  _434
REMARK  180  A    between atoms: _434  and  _435
REMARK  181  A    between atoms: _437  and  _439
REMARK  182  A    between atoms: _439  and  _440
REMARK  183  A    between atoms: _439  and  _442
REMARK  184  A    between atoms: _442  and  _443
REMARK  185  A    between atoms: _446  and  _448
REMARK  186  A    between atoms: _448  and  _449
REMARK  187  A    between atoms: _451  and  _453
REMARK  188  A    between atoms: _453  and  _454
REMARK  189  A    between atoms: _456  and  _458
REMARK  190  A    between atoms: _458  and  _459
REMARK  191  A    between atoms: _458  and  _461
REMARK  192  A    between atoms: _461  and  _462
REMARK  193  A    between atoms: _468  and  _470
REMARK  194  A    between atoms: _470  and  _471
REMARK  195  A    between atoms: _470  and  _473
REMARK  196  A    between atoms: _473  and  _474
REMARK  197  A    between atoms: _477  and  _479
REMARK  198  A    between atoms: _479  and  _480
REMARK  199  A    between atoms: _479  and  _482
REMARK  200  A    between atoms: _482  and  _483
REMARK  201  A    between atoms: _487  and  _488
REMARK  202  A    between atoms: _493  and  _495
REMARK  203  A    between atoms: _495  and  _496
REMARK  204  A    between atoms: _495  and  _498
REMARK  205  A    between atoms: _498  and  _499
REMARK  206  A    between atoms: _503  and  _504
REMARK  207  A    between atoms: _509  and  _511
REMARK  208  A    between atoms: _511  and  _512
REMARK  209  A    between atoms: _511  and  _514
REMARK  210  A    between atoms: _517  and  _519
REMARK  211  A    between atoms: _519  and  _520
REMARK  212  A    between atoms: _519  and  _522
REMARK  213  A    between atoms: _522  and  _523
REMARK  214  A    between atoms: _528  and  _530
REMARK  215  A    between atoms: _530  and  _531
REMARK  216  A    between atoms: _530  and  _533
REMARK  217  A    between atoms: _533  and  _534
REMARK  218  A    between atoms: _537  and  _539
REMARK  219  A    between atoms: _539  and  _540
REMARK  220  A    between atoms: _539  and  _542
REMARK  221  A    between atoms: _542  and  _543
REMARK  222  A    between atoms: _546  and  _548
REMARK  223  A    between atoms: _548  and  _549
REMARK  224  A    between atoms: _551  and  _553
REMARK  225  A    between atoms: _553  and  _554
REMARK  226  A    between atoms: _553  and  _556
REMARK  227  A    between atoms: _556  and  _557
REMARK  228  A    between atoms: _557  and  _558
REMARK  229  A    between atoms: _558  and  _559
REMARK                            x       y       z     vdW  Elec       q    Type
REMARK                         _______ _______ _______ _____ _____    ______ ____
ROOT
ATOM      1  CA  LEU A   1      -8.505   1.246  10.357  0.00  0.00    +0.133 C 
ENDROOT
BRANCH   1   2
ATOM      2  N   LEU A   1      -8.632   2.246  11.413  0.00  0.00    -0.239 NA
ATOM      3  H   LEU A   1      -7.850   2.446  12.069  0.00  0.00    +0.142 HD
ENDBRANCH   1   2
BRANCH   1   4
ATOM      4  C   LEU A   1      -8.804  -0.181  10.887  0.00  0.00    +0.224 C 
ATOM      5  O   LEU A   1      -8.399  -0.574  11.971  0.00  0.00    -0.287 OA
ENDBRANCH   1   4
BRANCH   1   6
ATOM      6  CB  LEU A   1      -7.066   1.324   9.824  0.00  0.00    +0.025 C 
BRANCH   6   7
ATOM      7  CG  LEU A   1      -6.550   2.725   9.522  0.00  0.00    +0.002 C 
ATOM      8  CD2 LEU A   1      -5.071   2.642   9.233  0.00  0.00    +0.000 C 
ATOM      9  CD1 LEU A   1      -7.239   3.355   8.317  0.00  0.00    +0.000 C 
ENDBRANCH   6   7
ENDBRANCH   1   6
TORSDOF 4
REMARK  Name = ../refined-set-2016/1hvi/1hvi_pocket.pdb
REMARK  229 active torsions:
REMARK  status: ('A' for Active; 'I' for Inactive)
REMARK    1  A    between atoms: _1  and  _3
REMARK    2  A    between atoms: _3  and  _4
REMARK    3  A    between atoms: _3  and  _6
REMARK    4  A    between atoms: _6  and  _7
REMARK    5  A    between atoms: _7  and  _8
REMARK    6  A    between atoms: _8  and  _9
REMARK    7  A    between atoms: _19  and  _20
REMARK    8  A    between atoms: _25  and  _27
REMARK    9  A    between atoms: _27  and  _28
REMARK   10  A    between atoms: _27  and  _30
REMARK   11  A    between atoms: _30  and  _31
REMARK   12  A    between atoms: _34  and  _36
REMARK   13  A    between atoms: _36  and  _37
REMARK   14  A    between atoms: _36  and  _39
REMARK   15  A    between atoms: _39  and  _40
REMARK   16  A    between atoms: _43  and  _45
REMARK   17  A    between atoms: _45  and  _46
REMARK   18  A    between atoms: _45  and  _48
REMARK   19  A    between atoms: _48  and  _49
REMARK   20  A    between atoms: _52  and  _54
REMARK   21  A    between atoms: _54  and  _55
REMARK   22  A    between atoms: _54  and  _57
REMARK   23  A    between atoms: _57  and  _58
REMARK   24  A    between atoms: _61  and  _63
REMARK   25  A    between atoms: _63  and  _64
REMARK   26  A    between atoms: _63  and  _66
REMARK   27  A    between atoms: _66  and  _67
REMARK   28  A    between atoms: _70  and  _72
REMARK   29  A    between atoms: _72  and  _73
REMARK   30  A    between atoms: _75  and  _77
REMARK   31  A    between atoms: _77  and  _78
REMARK   32  A    between atoms: _81  and  _83
REMARK   33  A    between atoms: _83  and  _84
REMARK   34  A    between atoms: _83  and  _86
REMARK   35  A    between atoms: _86  and  _87
REMARK   36  A    between atoms: _90  and  _92
REMARK   37  A    between atoms: _92  and  _93
REMARK   38  A    between atoms: _92  and  _95
REMARK   39  A    between atoms: _95  and  _96
REMARK   40  A    between atoms: _99  and  _101
REMARK   41  A    between atoms: _101  and  _102
REMARK   42  A    between atoms: _101  and  _104
REMARK   43  A    between atoms: _104  and  _105
REMARK   44  A    between atoms: _108  and  _110
REMARK   45  A    between atoms: _110  and  _111
REMARK   46  A    between atoms: _110  and  _113
REMARK   47  A    between atoms: _116  and  _118
REMARK   48  A    between atoms: _118  and  _119
REMARK   49  A    between atoms: _118  and  _121
REMARK   50  A    between atoms: _121  and  _122
REMARK   51  A    between atoms: _122  and  _123
REMARK   52  A    between atoms: _123  and  _124
REMARK   53  A    between atoms: _124  and  _125
REMARK   54  A    between atoms: _129  and  _131
REMARK   55  A    between atoms: _131  and  _132
REMARK   56  A    between atoms: _131  and  _134
REMARK   57  A    between atoms: _134  and  _135
REMARK   58  A    between atoms: _135  and  _136
REMARK   59  A    between atoms: _138  and  _140
REMARK   60  A    between atoms: _140  and  _141
REMARK   61  A    between atoms: _140  and  _143
REMARK   62  A    between atoms: _143  and  _144
REMARK   63  A    between atoms: _147  and  _149
REMARK   64  A    between atoms: _149  and  _150
REMARK   65  A    between atoms: _152  and  _154
REMARK   66  A    between atoms: _154  and  _155
REMARK   67  A    between atoms: _157  and  _159
REMARK   68  A    between atoms: _159  and  _160
REMARK   69  A    between atoms: _159  and  _162
REMARK   70  A    between atoms: _162  and  _163
REMARK   71  A    between atoms: _166  and  _168
REMARK   72  A    between atoms: _168  and  _169
REMARK   73  A    between atoms: _171  and  _173
REMARK   74  A    between atoms: _173  and  _174
REMARK   75  A    between atoms: _176  and  _178
REMARK   76  A    between atoms: _178  and  _179
REMARK   77  A    between atoms: _178  and  _181
REMARK   78  A    between atoms: _181  and  _182
REMARK   79  A    between atoms: _188  and  _190
REMARK   80  A    between atoms: _190  and  _191
REMARK   81  A    between atoms: _190  and  _193
REMARK   82  A    between atoms: _193  and  _194
REMARK   83  A    between atoms: _197  and  _199
REMARK   84  A    between atoms: _199  and  _200
REMARK   85  A    between atoms: _199  and  _202
REMARK   86  A    between atoms: _202  and  _203
REMARK   87  A    between atoms: _207  and  _208
REMARK   88  A    between atoms: _213  and  _215
REMARK   89  A    between atoms: _215  and  _216
REMARK   90  A    between atoms: _215  and  _218
REMARK   91  A    between atoms: _218  and  _219
REMARK   92  A    between atoms: _223  and  _224
REMARK   93  A    between atoms: _229  and  _231
REMARK   94  A    between atoms: _231  and  _232
REMARK   95  A    between atoms: _231  and  _234
REMARK   96  A    between atoms: _237  and  _239
REMARK   97  A    between atoms: _239  and  _240
REMARK   98  A    between atoms: _239  and  _242
REMARK   99  A    between atoms: _242  and  _243
REMARK  100  A    between atoms: _248  and  _250
REMARK  101  A    between atoms: _250  and  _251
REMARK  102  A    between atoms: _250  and  _253
REMARK  103  A    between atoms: _253  and  _254
REMARK  104  A    between atoms: _257  and  _259
REMARK  105  A    between atoms: _259  and  _260
REMARK  106  A    between atoms: _259  and  _262
REMARK  107  A    between atoms: _262  and  _263
REMARK  108  A    between atoms: _266  and  _268
REMARK  109  A    between atoms: _268  and  _269
REMARK  110  A    between atoms: _271  and  _273
REMARK  111  A    between atoms: _273  and  _274
REMARK  112  A    between atoms: _273  and  _276
REMARK  113  A    between atoms: _276  and  _277
REMARK  114  A    between atoms: _277  and  _278
REMARK  115  A    between atoms: _278  and  _279
REMARK  116  A    between atoms: _288  and  _290
REMARK  117  A    between atoms: _290  and  _291
REMARK  118  A    between atoms: _290  and  _293
REMARK  119  A    between atoms: _293  and  _294
REMARK  120  A    between atoms: _294  and  _295
REMARK  121  A    between atoms: _295  and  _296
REMARK  122  A    between atoms: _305  and  _307
REMARK  123  A    between atoms: _307  and  _308
REMARK  124  A    between atoms: _307  and  _310
REMARK  125  A    between atoms: _310  and  _311
REMARK  126  A    between atoms: _314  and  _316
REMARK  127  A    between atoms: _316  and  _317
REMARK  128  A    between atoms: _316  and  _319
REMARK  129  A    between atoms: _319  and  _320
REMARK  130  A    between atoms: _323  and  _325
REMARK  131  A    between atoms: _325  and  _326
REMARK  132  A    between atoms: _325  and  _328
REMARK  133  A    between atoms: _328  and  _329
REMARK  134  A    between atoms: _332  and  _334
REMARK  135  A    between atoms: _334  and  _335
REMARK  136  A    between atoms: _334  and  _337
REMARK  137  A    between atoms: _337  and  _338
REMARK  138  A    between atoms: _341  and  _343
REMARK  139  A    between atoms: _343  and  _344
REMARK  140  A    between atoms: _343  and  _346
REMARK  141  A    between atoms: _346  and  _347
REMARK  142  A    between atoms: _350  and  _352
REMARK  143  A    between atoms: _352  and  _353
REMARK  144  A    between atoms: _355  and  _357
REMARK  145  A    between atoms: _357  and  _358
REMARK  146  A    between atoms: _361  and  _363
REMARK  147  A    between atoms: _363  and  _364
REMARK  148  A    between atoms: _363  and  _366
REMARK  149  A    between atoms: _366  and  _367
REMARK  150  A    between atoms: _370  and  _372
REMARK  151  A    between atoms: _372  and  _373
REMARK  152  A    between atoms: _372  and  _375
REMARK  153  A    between atoms: _375  and  _376
REMARK  154  A    between atoms: _379  and  _381
REMARK  155  A    between atoms: _381  and  _382
REMARK  156  A    between atoms: _381  and  _384
REMARK  157  A    between atoms: _384  and  _385
REMARK  158  A    between atoms: _388  and  _390
REMARK  159  A    between atoms: _390  and  _391
REMARK  160  A    between atoms: _390  and  _393
REMARK  161  A    between atoms: _396  and  _398
REMARK  162  A    between atoms: _398  and  _399
REMARK  163  A    between atoms: _398  and  _401
REMARK  164  A    between atoms: _401  and  _402
REMARK  165  A    between atoms: _402  and  _403
REMARK  166  A    between atoms: _403  and  _404
REMARK  167  A    between atoms: _404  and  _405
REMARK  168  A    between atoms: _409  and  _411
REMARK  169  A    between atoms: _411  and  _412
REMARK  170  A    between atoms: _411  and  _414
REMARK  171  A    between atoms: _414  and  _415
REMARK  172  A    between atoms: _415  and  _416
REMARK  173  A    between atoms: _418  and  _420
REMARK  174  A    between atoms: _420  and  _421
REMARK  175  A    between atoms: _420  and  _423
REMARK  176  A    between atoms: _423  and  _424
REMARK  177  A    between atoms: _427  and  _429
REMARK  178  A    between atoms: _429  and  _430
REMARK  179  A    between atoms: _432  and  _434
REMARK  180  A    between atoms: _434  and  _435
REMARK  181  A    between atoms: _437  and  _439
REMARK  182  A    between atoms: _439  and  _440
REMARK  183  A    between atoms: _439  and  _442
REMARK  184  A    between atoms: _442  and  _443
REMARK  185  A    between atoms: _446  and  _448
REMARK  186  A    between atoms: _448  and  _449
REMARK  187  A    between atoms: _451  and  _453
REMARK  188  A    between atoms: _453  and  _454
REMARK  189  A    between atoms: _456  and  _458
REMARK  190  A    between atoms: _458  and  _459
REMARK  191  A    between atoms: _458  and  _461
REMARK  192  A    between atoms: _461  and  _462
REMARK  193  A    between atoms: _468  and  _470
REMARK  194  A    between atoms: _470  and  _471
REMARK  195  A    between atoms: _470  and  _473
REMARK  196  A    between atoms: _473  and  _474
REMARK  197  A    between atoms: _477  and  _479
REMARK  198  A    between atoms: _479  and  _480
REMARK  199  A    between atoms: _479  and  _482
REMARK  200  A    between atoms: _482  and  _483
REMARK  201  A    between atoms: _487  and  _488
REMARK  202  A    between atoms: _493  and  _495
REMARK  203  A    between atoms: _495  and  _496
REMARK  204  A    between atoms: _495  and  _498
REMARK  205  A    between atoms: _498  and  _499
REMARK  206  A    between atoms: _503  and  _504
REMARK  207  A    between atoms: _509  and  _511
REMARK  208  A    between atoms: _511  and  _512
REMARK  209  A    between atoms: _511  and  _514
REMARK  210  A    between atoms: _517  and  _519
REMARK  211  A    between atoms: _519  and  _520
REMARK  212  A    between atoms: _519  and  _522
REMARK  213  A    between atoms: _522  and  _523
REMARK  214  A    between atoms: _528  and  _530
REMARK  215  A    between atoms: _530  and  _531
REMARK  216  A    between atoms: _530  and  _533
REMARK  217  A    between atoms: _533  and  _534
REMARK  218  A    between atoms: _537  and  _539
REMARK  219  A    between atoms: _539  and  _540
REMARK  220  A    between atoms: _539  and  _542
REMARK  221  A    between atoms: _542  and  _543
REMARK  222  A    between atoms: _546  and  _548
REMARK  223  A    between atoms: _548  and  _549
REMARK  224  A    between atoms: _551  and  _553
REMARK  225  A    between atoms: _553  and  _554
REMARK  226  A    between atoms: _553  and  _556
REMARK  227  A    between atoms: _556  and  _557
REMARK  228  A    between atoms: _557  and  _558
REMARK  229  A    between atoms: _558  and  _559
REMARK                            x       y       z     vdW  Elec       q    Type
REMARK                         _______ _______ _______ _____ _____    ______ ____
ROOT
ATOM      1  C   ASN A   5      -4.226  -3.007  18.633  0.00  0.00    +0.241 C 
ATOM      2  O   ASN A   5      -3.666  -3.099  19.719  0.00  0.00    -0.273 OA
ATOM      3  N   ILE A   6      -4.081  -2.003  17.780  0.00  0.00    -0.297 N 
ATOM      4  H   ILE A   6      -4.680  -1.974  16.930  0.00  0.00    +0.150 HD
ENDROOT
BRANCH   3   5
ATOM      5  CA  ILE A   6      -3.103  -0.931  17.995  0.00  0.00    +0.149 C 
BRANCH   5   6
ATOM      6  C   ILE A   6      -3.777   0.413  18.127  0.00  0.00    +0.241 C 
ATOM      7  N   ILE A   7      -3.494   1.097  19.220  0.00  0.00    -0.297 N 
ATOM      8  H   ILE A   7      -3.004   0.642  20.016  0.00  0.00    +0.150 HD
ATOM      9  O   ILE A   6      -4.510   0.823  17.256  0.00  0.00    -0.273 OA
BRANCH   7  10
ATOM     10  CA  ILE A   7      -3.877   2.492  19.292  0.00  0.00    +0.149 C 
BRANCH  10  11
ATOM     11  C   ILE A   7      -2.693   3.388  18.952  0.00  0.00    +0.241 C 
ATOM     12  O   ILE A   7      -1.704   3.452  19.669  0.00  0.00    -0.273 OA
ATOM     13  N   GLY A   8      -2.814   4.082  17.826  0.00  0.00    -0.295 N 
ATOM     14  H   GLY A   8      -3.670   3.997  17.241  0.00  0.00    +0.150 HD
BRANCH  13  15
ATOM     15  CA  GLY A   8      -1.718   4.971  17.423  0.00  0.00    +0.176 C 
BRANCH  15  16
ATOM     16  C   GLY A   8      -1.863   6.412  17.831  0.00  0.00    +0.243 C 
ATOM     17  O   GLY A   8      -2.831   6.834  18.440  0.00  0.00    -0.273 OA
ATOM     18  N   ARG A   9      -0.873   7.174  17.414  0.00  0.00    -0.298 N 
ATOM     19  H   ARG A   9      -0.107   6.758  16.847  0.00  0.00    +0.150 HD
BRANCH  18  20
ATOM     20  CA  ARG A   9      -0.838   8.612  17.743  0.00  0.00    +0.137 C 
BRANCH  20  21
ATOM     21  C   ARG A   9      -2.015   9.479  17.393  0.00  0.00    +0.227 C 
ATOM     22  O   ARG A   9      -2.291  10.421  18.107  0.00  0.00    -0.286 OA
ENDBRANCH  20  21
BRANCH  20  23
ATOM     23  CB  ARG A   9       0.404   9.338  17.211  0.00  0.00    +0.031 C 
BRANCH  23  24
ATOM     24  CG  ARG A   9       1.716   8.783  17.766  0.00  0.00    +0.045 C 
BRANCH  24  25
ATOM     25  CD  ARG A   9       2.918   9.671  17.432  0.00  0.00    +0.174 C 
BRANCH  25  26
ATOM     26  NE  ARG A   9       3.171   9.653  15.994  0.00  0.00    -0.265 N 
ATOM     27  HE  ARG A   9       3.706   8.860  15.586  0.00  0.00    +0.259 HD
ATOM     28  CZ  ARG A   9       2.736  10.626  15.184  0.00  0.00    +0.342 C 
ATOM     29  NH2 ARG A   9       2.162  11.733  15.662  0.00  0.00    -0.292 N 
ATOM     30 HH21 ARG A   9       2.043  11.856  16.688  0.00  0.00    +0.255 HD
ATOM     31 HH22 ARG A   9       1.834  12.472  15.008  0.00  0.00    +0.255 HD
ATOM     32  NH1 ARG A   9       2.858  10.458  13.869  0.00  0.00    -0.292 N 
ATOM     33 HH11 ARG A   9       3.283   9.586  13.493  0.00  0.00    +0.255 HD
ATOM     34 HH12 ARG A   9       2.528  11.198  13.217  0.00  0.00    +0.255 HD
ENDBRANCH  25  26
ENDBRANCH  24  25
ENDBRANCH  23  24
ENDBRANCH  20  23
ENDBRANCH  18  20
ENDBRANCH  15  16
ENDBRANCH  13  15
ENDBRANCH  10  11
BRANCH  10  35
ATOM     35  CB  ILE A   7      -4.405   2.837  20.698  0.00  0.00    +0.027 C 
ATOM     36  CG2 ILE A   7      -4.889   4.296  20.748  0.00  0.00    +0.002 C 
BRANCH  35  37
ATOM     37  CG1 ILE A   7      -5.537   1.927  21.180  0.00  0.00    +0.002 C 
ATOM     38  CD1 ILE A   7      -6.768   1.959  20.256  0.00  0.00    +0.000 C 
ENDBRANCH  35  37
ENDBRANCH  10  35
ENDBRANCH   7  10
ENDBRANCH   5   6
BRANCH   5  39
ATOM     39  CB  ILE A   6      -2.160  -0.832  16.773  0.00  0.00    +0.027 C 
ATOM     40  CG2 ILE A   6      -1.231   0.409  16.831  0.00  0.00    +0.002 C 
BRANCH  39  41
ATOM     41  CG1 ILE A   6      -1.337  -2.086  16.451  0.00  0.00    +0.002 C 
ATOM     42  CD1 ILE A   6      -0.274  -2.312  17.495  0.00  0.00    +0.000 C 
ENDBRANCH  39  41
ENDBRANCH   5  39
ENDBRANCH   3   5
BRANCH   1  43
ATOM     43  CA  ASN A   5      -5.162  -4.081  18.149  0.00  0.00    +0.158 C 
BRANCH  43  45
ATOM     44  C   VAL A   4      -3.553  -5.640  17.323  0.00  0.00    +0.241 C 
ATOM     45  N   ASN A   5      -4.545  -5.399  18.157  0.00  0.00    -0.297 N 
ATOM     46  H   ASN A   5      -4.880  -6.137  18.809  0.00  0.00    +0.150 HD
ATOM     47  O   VAL A   4      -3.209  -4.864  16.448  0.00  0.00    -0.273 OA
BRANCH  44  48
ATOM     48  CA  VAL A   4      -2.818  -6.956  17.507  0.00  0.00    +0.149 C 
BRANCH  48  51
ATOM     49  C   PRO A   3      -2.291  -8.888  16.032  0.00  0.00    +0.241 C 
ATOM     50  O   PRO A   3      -2.604  -9.691  16.897  0.00  0.00    -0.273 OA
ATOM     51  N   VAL A   4      -2.417  -7.563  16.211  0.00  0.00    -0.297 N 
ATOM     52  H   VAL A   4      -2.225  -6.933  15.406  0.00  0.00    +0.150 HD
BRANCH  49  56
ATOM     53  C   THR A   2      -3.202  -8.045  13.257  0.00  0.00    +0.246 C 
ATOM     54  O   THR A   2      -4.154  -8.572  13.805  0.00  0.00    -0.273 OA
ATOM     55  N   PRO A   3      -1.936  -8.397  13.539  0.00  0.00    -0.272 N 
ATOM     56  CA  PRO A   3      -1.696  -9.319  14.661  0.00  0.00    +0.152 C 
ATOM     57  CB  PRO A   3      -0.165  -9.358  14.736  0.00  0.00    +0.031 C 
ATOM     58  CG  PRO A   3       0.374  -8.841  13.406  0.00  0.00    +0.024 C 
ATOM     59  CD  PRO A   3      -0.713  -7.932  12.872  0.00  0.00    +0.094 C 
BRANCH  53  60
ATOM     60  CA  THR A   2      -3.413  -6.929  12.226  0.00  0.00    +0.176 C 
BRANCH  60  62
ATOM     61  C   PRO A   1      -4.432  -8.063  10.338  0.00  0.00    +0.239 C 
ATOM     62  N   THR A   2      -4.563  -7.196  11.340  0.00  0.00    -0.295 N 
ATOM     63  H   THR A   2      -5.469  -6.710  11.497  0.00  0.00    +0.150 HD
ATOM     64  O   PRO A   1      -3.351  -8.576  10.077  0.00  0.00    -0.274 OA
BRANCH  61  66
ATOM     65  N   PRO A   1      -6.383  -7.127   8.953  0.00  0.00    -0.210 NA
ATOM     66  CA  PRO A   1      -5.745  -8.325   9.566  0.00  0.00    +0.149 C 
ATOM     67  CB  PRO A   1      -5.567  -9.233   8.320  0.00  0.00    +0.028 C 
ATOM     68  CG  PRO A   1      -5.265  -8.220   7.204  0.00  0.00    +0.021 C 
ATOM     69  CD  PRO A   1      -6.185  -7.021   7.510  0.00  0.00    +0.089 C 
ENDBRANCH  61  66
ENDBRANCH  60  62
BRANCH  60  70
ATOM     70  CB  THR A   2      -3.600  -5.533  12.928  0.00  0.00    +0.137 C 
ATOM     71  CG2 THR A   2      -4.940  -5.396  13.664  0.00  0.00    +0.034 C 
BRANCH  70  72
ATOM     72  OG1 THR A   2      -2.489  -5.260  13.811  0.00  0.00    -0.382 OA
ATOM     73  HG1 THR A   2      -2.622  -4.380  14.244  0.00  0.00    +0.210 HD
ENDBRANCH  70  72
ENDBRANCH  60  70
ENDBRANCH  53  60
ENDBRANCH  49  56
ENDBRANCH  48  51
BRANCH  48  74
ATOM     74  CB  VAL A   4      -1.533  -6.698  18.367  0.00  0.00    +0.027 C 
ATOM     75  CG2 VAL A   4      -1.794  -6.099  19.758  0.00  0.00    +0.002 C 
ATOM     76  CG1 VAL A   4      -0.555  -5.782  17.640  0.00  0.00    +0.002 C 
ENDBRANCH  48  74
ENDBRANCH  44  48
ENDBRANCH  43  45
BRANCH  43  77
ATOM     77  CB  ASN A   5      -6.365  -3.990  19.078  0.00  0.00    +0.114 C 
BRANCH  77  78
ATOM     78  CG  ASN A   5      -7.430  -4.970  18.691  0.00  0.00    +0.222 C 
ATOM     79  ND2 ASN A   5      -7.997  -5.626  19.656  0.00  0.00    -0.329 N 
ATOM     80 HD21 ASN A   5      -7.683  -5.483  20.637  0.00  0.00    +0.145 HD
ATOM     81 HD22 ASN A   5      -8.766  -6.295  19.449  0.00  0.00    +0.145 HD
ATOM     82  OD1 ASN A   5      -7.792  -5.134  17.559  0.00  0.00    -0.275 OA
ENDBRANCH  77  78
ENDBRANCH  43  77
ENDBRANCH   1  43
TORSDOF 29
REMARK  Name = ../refined-set-2016/1hvi/1hvi_pocket.pdb
REMARK  229 active torsions:
REMARK  status: ('A' for Active; 'I' for Inactive)
REMARK    1  A    between atoms: _1  and  _3
REMARK    2  A    between atoms: _3  and  _4
REMARK    3  A    between atoms: _3  and  _6
REMARK    4  A    between atoms: _6  and  _7
REMARK    5  A    between atoms: _7  and  _8
REMARK    6  A    between atoms: _8  and  _9
REMARK    7  A    between atoms: _19  and  _20
REMARK    8  A    between atoms: _25  and  _27
REMARK    9  A    between atoms: _27  and  _28
REMARK   10  A    between atoms: _27  and  _30
REMARK   11  A    between atoms: _30  and  _31
REMARK   12  A    between atoms: _34  and  _36
REMARK   13  A    between atoms: _36  and  _37
REMARK   14  A    between atoms: _36  and  _39
REMARK   15  A    between atoms: _39  and  _40
REMARK   16  A    between atoms: _43  and  _45
REMARK   17  A    between atoms: _45  and  _46
REMARK   18  A    between atoms: _45  and  _48
REMARK   19  A    between atoms: _48  and  _49
REMARK   20  A    between atoms: _52  and  _54
REMARK   21  A    between atoms: _54  and  _55
REMARK   22  A    between atoms: _54  and  _57
REMARK   23  A    between atoms: _57  and  _58
REMARK   24  A    between atoms: _61  and  _63
REMARK   25  A    between atoms: _63  and  _64
REMARK   26  A    between atoms: _63  and  _66
REMARK   27  A    between atoms: _66  and  _67
REMARK   28  A    between atoms: _70  and  _72
REMARK   29  A    between atoms: _72  and  _73
REMARK   30  A    between atoms: _75  and  _77
REMARK   31  A    between atoms: _77  and  _78
REMARK   32  A    between atoms: _81  and  _83
REMARK   33  A    between atoms: _83  and  _84
REMARK   34  A    between atoms: _83  and  _86
REMARK   35  A    between atoms: _86  and  _87
REMARK   36  A    between atoms: _90  and  _92
REMARK   37  A    between atoms: _92  and  _93
REMARK   38  A    between atoms: _92  and  _95
REMARK   39  A    between atoms: _95  and  _96
REMARK   40  A    between atoms: _99  and  _101
REMARK   41  A    between atoms: _101  and  _102
REMARK   42  A    between atoms: _101  and  _104
REMARK   43  A    between atoms: _104  and  _105
REMARK   44  A    between atoms: _108  and  _110
REMARK   45  A    between atoms: _110  and  _111
REMARK   46  A    between atoms: _110  and  _113
REMARK   47  A    between atoms: _116  and  _118
REMARK   48  A    between atoms: _118  and  _119
REMARK   49  A    between atoms: _118  and  _121
REMARK   50  A    between atoms: _121  and  _122
REMARK   51  A    between atoms: _122  and  _123
REMARK   52  A    between atoms: _123  and  _124
REMARK   53  A    between atoms: _124  and  _125
REMARK   54  A    between atoms: _129  and  _131
REMARK   55  A    between atoms: _131  and  _132
REMARK   56  A    between atoms: _131  and  _134
REMARK   57  A    between atoms: _134  and  _135
REMARK   58  A    between atoms: _135  and  _136
REMARK   59  A    between atoms: _138  and  _140
REMARK   60  A    between atoms: _140  and  _141
REMARK   61  A    between atoms: _140  and  _143
REMARK   62  A    between atoms: _143  and  _144
REMARK   63  A    between atoms: _147  and  _149
REMARK   64  A    between atoms: _149  and  _150
REMARK   65  A    between atoms: _152  and  _154
REMARK   66  A    between atoms: _154  and  _155
REMARK   67  A    between atoms: _157  and  _159
REMARK   68  A    between atoms: _159  and  _160
REMARK   69  A    between atoms: _159  and  _162
REMARK   70  A    between atoms: _162  and  _163
REMARK   71  A    between atoms: _166  and  _168
REMARK   72  A    between atoms: _168  and  _169
REMARK   73  A    between atoms: _171  and  _173
REMARK   74  A    between atoms: _173  and  _174
REMARK   75  A    between atoms: _176  and  _178
REMARK   76  A    between atoms: _178  and  _179
REMARK   77  A    between atoms: _178  and  _181
REMARK   78  A    between atoms: _181  and  _182
REMARK   79  A    between atoms: _188  and  _190
REMARK   80  A    between atoms: _190  and  _191
REMARK   81  A    between atoms: _190  and  _193
REMARK   82  A    between atoms: _193  and  _194
REMARK   83  A    between atoms: _197  and  _199
REMARK   84  A    between atoms: _199  and  _200
REMARK   85  A    between atoms: _199  and  _202
REMARK   86  A    between atoms: _202  and  _203
REMARK   87  A    between atoms: _207  and  _208
REMARK   88  A    between atoms: _213  and  _215
REMARK   89  A    between atoms: _215  and  _216
REMARK   90  A    between atoms: _215  and  _218
REMARK   91  A    between atoms: _218  and  _219
REMARK   92  A    between atoms: _223  and  _224
REMARK   93  A    between atoms: _229  and  _231
REMARK   94  A    between atoms: _231  and  _232
REMARK   95  A    between atoms: _231  and  _234
REMARK   96  A    between atoms: _237  and  _239
REMARK   97  A    between atoms: _239  and  _240
REMARK   98  A    between atoms: _239  and  _242
REMARK   99  A    between atoms: _242  and  _243
REMARK  100  A    between atoms: _248  and  _250
REMARK  101  A    between atoms: _250  and  _251
REMARK  102  A    between atoms: _250  and  _253
REMARK  103  A    between atoms: _253  and  _254
REMARK  104  A    between atoms: _257  and  _259
REMARK  105  A    between atoms: _259  and  _260
REMARK  106  A    between atoms: _259  and  _262
REMARK  107  A    between atoms: _262  and  _263
REMARK  108  A    between atoms: _266  and  _268
REMARK  109  A    between atoms: _268  and  _269
REMARK  110  A    between atoms: _271  and  _273
REMARK  111  A    between atoms: _273  and  _274
REMARK  112  A    between atoms: _273  and  _276
REMARK  113  A    between atoms: _276  and  _277
REMARK  114  A    between atoms: _277  and  _278
REMARK  115  A    between atoms: _278  and  _279
REMARK  116  A    between atoms: _288  and  _290
REMARK  117  A    between atoms: _290  and  _291
REMARK  118  A    between atoms: _290  and  _293
REMARK  119  A    between atoms: _293  and  _294
REMARK  120  A    between atoms: _294  and  _295
REMARK  121  A    between atoms: _295  and  _296
REMARK  122  A    between atoms: _305  and  _307
REMARK  123  A    between atoms: _307  and  _308
REMARK  124  A    between atoms: _307  and  _310
REMARK  125  A    between atoms: _310  and  _311
REMARK  126  A    between atoms: _314  and  _316
REMARK  127  A    between atoms: _316  and  _317
REMARK  128  A    between atoms: _316  and  _319
REMARK  129  A    between atoms: _319  and  _320
REMARK  130  A    between atoms: _323  and  _325
REMARK  131  A    between atoms: _325  and  _326
REMARK  132  A    between atoms: _325  and  _328
REMARK  133  A    between atoms: _328  and  _329
REMARK  134  A    between atoms: _332  and  _334
REMARK  135  A    between atoms: _334  and  _335
REMARK  136  A    between atoms: _334  and  _337
REMARK  137  A    between atoms: _337  and  _338
REMARK  138  A    between atoms: _341  and  _343
REMARK  139  A    between atoms: _343  and  _344
REMARK  140  A    between atoms: _343  and  _346
REMARK  141  A    between atoms: _346  and  _347
REMARK  142  A    between atoms: _350  and  _352
REMARK  143  A    between atoms: _352  and  _353
REMARK  144  A    between atoms: _355  and  _357
REMARK  145  A    between atoms: _357  and  _358
REMARK  146  A    between atoms: _361  and  _363
REMARK  147  A    between atoms: _363  and  _364
REMARK  148  A    between atoms: _363  and  _366
REMARK  149  A    between atoms: _366  and  _367
REMARK  150  A    between atoms: _370  and  _372
REMARK  151  A    between atoms: _372  and  _373
REMARK  152  A    between atoms: _372  and  _375
REMARK  153  A    between atoms: _375  and  _376
REMARK  154  A    between atoms: _379  and  _381
REMARK  155  A    between atoms: _381  and  _382
REMARK  156  A    between atoms: _381  and  _384
REMARK  157  A    between atoms: _384  and  _385
REMARK  158  A    between atoms: _388  and  _390
REMARK  159  A    between atoms: _390  and  _391
REMARK  160  A    between atoms: _390  and  _393
REMARK  161  A    between atoms: _396  and  _398
REMARK  162  A    between atoms: _398  and  _399
REMARK  163  A    between atoms: _398  and  _401
REMARK  164  A    between atoms: _401  and  _402
REMARK  165  A    between atoms: _402  and  _403
REMARK  166  A    between atoms: _403  and  _404
REMARK  167  A    between atoms: _404  and  _405
REMARK  168  A    between atoms: _409  and  _411
REMARK  169  A    between atoms: _411  and  _412
REMARK  170  A    between atoms: _411  and  _414
REMARK  171  A    between atoms: _414  and  _415
REMARK  172  A    between atoms: _415  and  _416
REMARK  173  A    between atoms: _418  and  _420
REMARK  174  A    between atoms: _420  and  _421
REMARK  175  A    between atoms: _420  and  _423
REMARK  176  A    between atoms: _423  and  _424
REMARK  177  A    between atoms: _427  and  _429
REMARK  178  A    between atoms: _429  and  _430
REMARK  179  A    between atoms: _432  and  _434
REMARK  180  A    between atoms: _434  and  _435
REMARK  181  A    between atoms: _437  and  _439
REMARK  182  A    between atoms: _439  and  _440
REMARK  183  A    between atoms: _439  and  _442
REMARK  184  A    between atoms: _442  and  _443
REMARK  185  A    between atoms: _446  and  _448
REMARK  186  A    between atoms: _448  and  _449
REMARK  187  A    between atoms: _451  and  _453
REMARK  188  A    between atoms: _453  and  _454
REMARK  189  A    between atoms: _456  and  _458
REMARK  190  A    between atoms: _458  and  _459
REMARK  191  A    between atoms: _458  and  _461
REMARK  192  A    between atoms: _461  and  _462
REMARK  193  A    between atoms: _468  and  _470
REMARK  194  A    between atoms: _470  and  _471
REMARK  195  A    between atoms: _470  and  _473
REMARK  196  A    between atoms: _473  and  _474
REMARK  197  A    between atoms: _477  and  _479
REMARK  198  A    between atoms: _479  and  _480
REMARK  199  A    between atoms: _479  and  _482
REMARK  200  A    between atoms: _482  and  _483
REMARK  201  A    between atoms: _487  and  _488
REMARK  202  A    between atoms: _493  and  _495
REMARK  203  A    between atoms: _495  and  _496
REMARK  204  A    between atoms: _495  and  _498
REMARK  205  A    between atoms: _498  and  _499
REMARK  206  A    between atoms: _503  and  _504
REMARK  207  A    between atoms: _509  and  _511
REMARK  208  A    between atoms: _511  and  _512
REMARK  209  A    between atoms: _511  and  _514
REMARK  210  A    between atoms: _517  and  _519
REMARK  211  A    between atoms: _519  and  _520
REMARK  212  A    between atoms: _519  and  _522
REMARK  213  A    between atoms: _522  and  _523
REMARK  214  A    between atoms: _528  and  _530
REMARK  215  A    between atoms: _530  and  _531
REMARK  216  A    between atoms: _530  and  _533
REMARK  217  A    between atoms: _533  and  _534
REMARK  218  A    between atoms: _537  and  _539
REMARK  219  A    between atoms: _539  and  _540
REMARK  220  A    between atoms: _539  and  _542
REMARK  221  A    between atoms: _542  and  _543
REMARK  222  A    between atoms: _546  and  _548
REMARK  223  A    between atoms: _548  and  _549
REMARK  224  A    between atoms: _551  and  _553
REMARK  225  A    between atoms: _553  and  _554
REMARK  226  A    between atoms: _553  and  _556
REMARK  227  A    between atoms: _556  and  _557
REMARK  228  A    between atoms: _557  and  _558
REMARK  229  A    between atoms: _558  and  _559
REMARK                            x       y       z     vdW  Elec       q    Type
REMARK                         _______ _______ _______ _____ _____    ______ ____
ROOT
ATOM      1  NE  ARG A   1       5.964   8.884  11.248  0.00  0.00    -0.265 N 
ATOM      2  HE  ARG A   1       5.043   8.509  11.552  0.00  0.00    +0.259 HD
ATOM      3  CZ  ARG A   1       6.200   9.087   9.952  0.00  0.00    +0.342 C 
ATOM      4  NH2 ARG A   1       7.420   9.463   9.550  0.00  0.00    -0.292 N 
ATOM      5 HH21 ARG A   1       8.180   9.596  10.248  0.00  0.00    +0.255 HD
ATOM      6 HH22 ARG A   1       7.608   9.622   8.540  0.00  0.00    +0.255 HD
ATOM      7  NH1 ARG A   1       5.181   8.926   9.110  0.00  0.00    -0.292 N 
ATOM      8 HH11 ARG A   1       4.245   8.652   9.472  0.00  0.00    +0.255 HD
ATOM      9 HH12 ARG A   1       5.321   9.074   8.090  0.00  0.00    +0.255 HD
ENDROOT
BRANCH   1  10
ATOM     10  CD  ARG A   1       6.989   9.184  12.246  0.00  0.00    +0.174 C 
BRANCH  10  11
ATOM     11  CG  ARG A   1       6.335   9.955  13.369  0.00  0.00    +0.045 C 
BRANCH  11  12
ATOM     12  CB  ARG A   1       7.310  10.267  14.476  0.00  0.00    +0.029 C 
BRANCH  12  13
ATOM     13  CA  ARG A   1       6.612  10.961  15.643  0.00  0.00    +0.133 C 
BRANCH  13  14
ATOM     14  N   ARG A   1       6.014  12.233  15.208  0.00  0.00    -0.239 NA
ATOM     15  H   ARG A   1       6.099  12.570  14.228  0.00  0.00    +0.142 HD
ENDBRANCH  13  14
BRANCH  13  16
ATOM     16  C   ARG A   1       7.684  11.164  16.695  0.00  0.00    +0.224 C 
ATOM     17  O   ARG A   1       8.481  12.053  16.476  0.00  0.00    -0.287 OA
ENDBRANCH  13  16
ENDBRANCH  12  13
ENDBRANCH  11  12
ENDBRANCH  10  11
ENDBRANCH   1  10
TORSDOF 6
REMARK  Name = ../refined-set-2016/1hvi/1hvi_pocket.pdb
REMARK  229 active torsions:
REMARK  status: ('A' for Active; 'I' for Inactive)
REMARK    1  A    between atoms: _1  and  _3
REMARK    2  A    between atoms: _3  and  _4
REMARK    3  A    between atoms: _3  and  _6
REMARK    4  A    between atoms: _6  and  _7
REMARK    5  A    between atoms: _7  and  _8
REMARK    6  A    between atoms: _8  and  _9
REMARK    7  A    between atoms: _19  and  _20
REMARK    8  A    between atoms: _25  and  _27
REMARK    9  A    between atoms: _27  and  _28
REMARK   10  A    between atoms: _27  and  _30
REMARK   11  A    between atoms: _30  and  _31
REMARK   12  A    between atoms: _34  and  _36
REMARK   13  A    between atoms: _36  and  _37
REMARK   14  A    between atoms: _36  and  _39
REMARK   15  A    between atoms: _39  and  _40
REMARK   16  A    between atoms: _43  and  _45
REMARK   17  A    between atoms: _45  and  _46
REMARK   18  A    between atoms: _45  and  _48
REMARK   19  A    between atoms: _48  and  _49
REMARK   20  A    between atoms: _52  and  _54
REMARK   21  A    between atoms: _54  and  _55
REMARK   22  A    between atoms: _54  and  _57
REMARK   23  A    between atoms: _57  and  _58
REMARK   24  A    between atoms: _61  and  _63
REMARK   25  A    between atoms: _63  and  _64
REMARK   26  A    between atoms: _63  and  _66
REMARK   27  A    between atoms: _66  and  _67
REMARK   28  A    between atoms: _70  and  _72
REMARK   29  A    between atoms: _72  and  _73
REMARK   30  A    between atoms: _75  and  _77
REMARK   31  A    between atoms: _77  and  _78
REMARK   32  A    between atoms: _81  and  _83
REMARK   33  A    between atoms: _83  and  _84
REMARK   34  A    between atoms: _83  and  _86
REMARK   35  A    between atoms: _86  and  _87
REMARK   36  A    between atoms: _90  and  _92
REMARK   37  A    between atoms: _92  and  _93
REMARK   38  A    between atoms: _92  and  _95
REMARK   39  A    between atoms: _95  and  _96
REMARK   40  A    between atoms: _99  and  _101
REMARK   41  A    between atoms: _101  and  _102
REMARK   42  A    between atoms: _101  and  _104
REMARK   43  A    between atoms: _104  and  _105
REMARK   44  A    between atoms: _108  and  _110
REMARK   45  A    between atoms: _110  and  _111
REMARK   46  A    between atoms: _110  and  _113
REMARK   47  A    between atoms: _116  and  _118
REMARK   48  A    between atoms: _118  and  _119
REMARK   49  A    between atoms: _118  and  _121
REMARK   50  A    between atoms: _121  and  _122
REMARK   51  A    between atoms: _122  and  _123
REMARK   52  A    between atoms: _123  and  _124
REMARK   53  A    between atoms: _124  and  _125
REMARK   54  A    between atoms: _129  and  _131
REMARK   55  A    between atoms: _131  and  _132
REMARK   56  A    between atoms: _131  and  _134
REMARK   57  A    between atoms: _134  and  _135
REMARK   58  A    between atoms: _135  and  _136
REMARK   59  A    between atoms: _138  and  _140
REMARK   60  A    between atoms: _140  and  _141
REMARK   61  A    between atoms: _140  and  _143
REMARK   62  A    between atoms: _143  and  _144
REMARK   63  A    between atoms: _147  and  _149
REMARK   64  A    between atoms: _149  and  _150
REMARK   65  A    between atoms: _152  and  _154
REMARK   66  A    between atoms: _154  and  _155
REMARK   67  A    between atoms: _157  and  _159
REMARK   68  A    between atoms: _159  and  _160
REMARK   69  A    between atoms: _159  and  _162
REMARK   70  A    between atoms: _162  and  _163
REMARK   71  A    between atoms: _166  and  _168
REMARK   72  A    between atoms: _168  and  _169
REMARK   73  A    between atoms: _171  and  _173
REMARK   74  A    between atoms: _173  and  _174
REMARK   75  A    between atoms: _176  and  _178
REMARK   76  A    between atoms: _178  and  _179
REMARK   77  A    between atoms: _178  and  _181
REMARK   78  A    between atoms: _181  and  _182
REMARK   79  A    between atoms: _188  and  _190
REMARK   80  A    between atoms: _190  and  _191
REMARK   81  A    between atoms: _190  and  _193
REMARK   82  A    between atoms: _193  and  _194
REMARK   83  A    between atoms: _197  and  _199
REMARK   84  A    between atoms: _199  and  _200
REMARK   85  A    between atoms: _199  and  _202
REMARK   86  A    between atoms: _202  and  _203
REMARK   87  A    between atoms: _207  and  _208
REMARK   88  A    between atoms: _213  and  _215
REMARK   89  A    between atoms: _215  and  _216
REMARK   90  A    between atoms: _215  and  _218
REMARK   91  A    between atoms: _218  and  _219
REMARK   92  A    between atoms: _223  and  _224
REMARK   93  A    between atoms: _229  and  _231
REMARK   94  A    between atoms: _231  and  _232
REMARK   95  A    between atoms: _231  and  _234
REMARK   96  A    between atoms: _237  and  _239
REMARK   97  A    between atoms: _239  and  _240
REMARK   98  A    between atoms: _239  and  _242
REMARK   99  A    between atoms: _242  and  _243
REMARK  100  A    between atoms: _248  and  _250
REMARK  101  A    between atoms: _250  and  _251
REMARK  102  A    between atoms: _250  and  _253
REMARK  103  A    between atoms: _253  and  _254
REMARK  104  A    between atoms: _257  and  _259
REMARK  105  A    between atoms: _259  and  _260
REMARK  106  A    between atoms: _259  and  _262
REMARK  107  A    between atoms: _262  and  _263
REMARK  108  A    between atoms: _266  and  _268
REMARK  109  A    between atoms: _268  and  _269
REMARK  110  A    between atoms: _271  and  _273
REMARK  111  A    between atoms: _273  and  _274
REMARK  112  A    between atoms: _273  and  _276
REMARK  113  A    between atoms: _276  and  _277
REMARK  114  A    between atoms: _277  and  _278
REMARK  115  A    between atoms: _278  and  _279
REMARK  116  A    between atoms: _288  and  _290
REMARK  117  A    between atoms: _290  and  _291
REMARK  118  A    between atoms: _290  and  _293
REMARK  119  A    between atoms: _293  and  _294
REMARK  120  A    between atoms: _294  and  _295
REMARK  121  A    between atoms: _295  and  _296
REMARK  122  A    between atoms: _305  and  _307
REMARK  123  A    between atoms: _307  and  _308
REMARK  124  A    between atoms: _307  and  _310
REMARK  125  A    between atoms: _310  and  _311
REMARK  126  A    between atoms: _314  and  _316
REMARK  127  A    between atoms: _316  and  _317
REMARK  128  A    between atoms: _316  and  _319
REMARK  129  A    between atoms: _319  and  _320
REMARK  130  A    between atoms: _323  and  _325
REMARK  131  A    between atoms: _325  and  _326
REMARK  132  A    between atoms: _325  and  _328
REMARK  133  A    between atoms: _328  and  _329
REMARK  134  A    between atoms: _332  and  _334
REMARK  135  A    between atoms: _334  and  _335
REMARK  136  A    between atoms: _334  and  _337
REMARK  137  A    between atoms: _337  and  _338
REMARK  138  A    between atoms: _341  and  _343
REMARK  139  A    between atoms: _343  and  _344
REMARK  140  A    between atoms: _343  and  _346
REMARK  141  A    between atoms: _346  and  _347
REMARK  142  A    between atoms: _350  and  _352
REMARK  143  A    between atoms: _352  and  _353
REMARK  144  A    between atoms: _355  and  _357
REMARK  145  A    between atoms: _357  and  _358
REMARK  146  A    between atoms: _361  and  _363
REMARK  147  A    between atoms: _363  and  _364
REMARK  148  A    between atoms: _363  and  _366
REMARK  149  A    between atoms: _366  and  _367
REMARK  150  A    between atoms: _370  and  _372
REMARK  151  A    between atoms: _372  and  _373
REMARK  152  A    between atoms: _372  and  _375
REMARK  153  A    between atoms: _375  and  _376
REMARK  154  A    between atoms: _379  and  _381
REMARK  155  A    between atoms: _381  and  _382
REMARK  156  A    between atoms: _381  and  _384
REMARK  157  A    between atoms: _384  and  _385
REMARK  158  A    between atoms: _388  and  _390
REMARK  159  A    between atoms: _390  and  _391
REMARK  160  A    between atoms: _390  and  _393
REMARK  161  A    between atoms: _396  and  _398
REMARK  162  A    between atoms: _398  and  _399
REMARK  163  A    between atoms: _398  and  _401
REMARK  164  A    between atoms: _401  and  _402
REMARK  165  A    between atoms: _402  and  _403
REMARK  166  A    between atoms: _403  and  _404
REMARK  167  A    between atoms: _404  and  _405
REMARK  168  A    between atoms: _409  and  _411
REMARK  169  A    between atoms: _411  and  _412
REMARK  170  A    between atoms: _411  and  _414
REMARK  171  A    between atoms: _414  and  _415
REMARK  172  A    between atoms: _415  and  _416
REMARK  173  A    between atoms: _418  and  _420
REMARK  174  A    between atoms: _420  and  _421
REMARK  175  A    between atoms: _420  and  _423
REMARK  176  A    between atoms: _423  and  _424
REMARK  177  A    between atoms: _427  and  _429
REMARK  178  A    between atoms: _429  and  _430
REMARK  179  A    between atoms: _432  and  _434
REMARK  180  A    between atoms: _434  and  _435
REMARK  181  A    between atoms: _437  and  _439
REMARK  182  A    between atoms: _439  and  _440
REMARK  183  A    between atoms: _439  and  _442
REMARK  184  A    between atoms: _442  and  _443
REMARK  185  A    between atoms: _446  and  _448
REMARK  186  A    between atoms: _448  and  _449
REMARK  187  A    between atoms: _451  and  _453
REMARK  188  A    between atoms: _453  and  _454
REMARK  189  A    between atoms: _456  and  _458
REMARK  190  A    between atoms: _458  and  _459
REMARK  191  A    between atoms: _458  and  _461
REMARK  192  A    between atoms: _461  and  _462
REMARK  193  A    between atoms: _468  and  _470
REMARK  194  A    between atoms: _470  and  _471
REMARK  195  A    between atoms: _470  and  _473
REMARK  196  A    between atoms: _473  and  _474
REMARK  197  A    between atoms: _477  and  _479
REMARK  198  A    between atoms: _479  and  _480
REMARK  199  A    between atoms: _479  and  _482
REMARK  200  A    between atoms: _482  and  _483
REMARK  201  A    between atoms: _487  and  _488
REMARK  202  A    between atoms: _493  and  _495
REMARK  203  A    between atoms: _495  and  _496
REMARK  204  A    between atoms: _495  and  _498
REMARK  205  A    between atoms: _498  and  _499
REMARK  206  A    between atoms: _503  and  _504
REMARK  207  A    between atoms: _509  and  _511
REMARK  208  A    between atoms: _511  and  _512
REMARK  209  A    between atoms: _511  and  _514
REMARK  210  A    between atoms: _517  and  _519
REMARK  211  A    between atoms: _519  and  _520
REMARK  212  A    between atoms: _519  and  _522
REMARK  213  A    between atoms: _522  and  _523
REMARK  214  A    between atoms: _528  and  _530
REMARK  215  A    between atoms: _530  and  _531
REMARK  216  A    between atoms: _530  and  _533
REMARK  217  A    between atoms: _533  and  _534
REMARK  218  A    between atoms: _537  and  _539
REMARK  219  A    between atoms: _539  and  _540
REMARK  220  A    between atoms: _539  and  _542
REMARK  221  A    between atoms: _542  and  _543
REMARK  222  A    between atoms: _546  and  _548
REMARK  223  A    between atoms: _548  and  _549
REMARK  224  A    between atoms: _551  and  _553
REMARK  225  A    between atoms: _553  and  _554
REMARK  226  A    between atoms: _553  and  _556
REMARK  227  A    between atoms: _556  and  _557
REMARK  228  A    between atoms: _557  and  _558
REMARK  229  A    between atoms: _558  and  _559
REMARK                            x       y       z     vdW  Elec       q    Type
REMARK                         _______ _______ _______ _____ _____    ______ ____
ROOT
ATOM      1  CA  LEU A   1      12.150  10.840  17.183  0.00  0.00    +0.133 C 
ENDROOT
BRANCH   1   2
ATOM      2  N   LEU A   1      10.722  11.015  17.570  0.00  0.00    -0.239 NA
ATOM      3  H   LEU A   1      10.163  11.758  17.105  0.00  0.00    +0.142 HD
ENDBRANCH   1   2
BRANCH   1   4
ATOM      4  C   LEU A   1      13.177  11.550  18.062  0.00  0.00    +0.224 C 
ATOM      5  O   LEU A   1      13.128  12.742  18.316  0.00  0.00    -0.287 OA
ENDBRANCH   1   4
BRANCH   1   6
ATOM      6  CB  LEU A   1      12.401  11.268  15.717  0.00  0.00    +0.025 C 
BRANCH   6   7
ATOM      7  CG  LEU A   1      11.576  10.409  14.752  0.00  0.00    +0.002 C 
ATOM      8  CD2 LEU A   1      12.155   9.012  14.615  0.00  0.00    +0.000 C 
ATOM      9  CD1 LEU A   1      11.453  11.097  13.401  0.00  0.00    +0.000 C 
ENDBRANCH   6   7
ENDBRANCH   1   6
TORSDOF 4
REMARK  Name = ../refined-set-2016/1hvi/1hvi_pocket.pdb
REMARK  229 active torsions:
REMARK  status: ('A' for Active; 'I' for Inactive)
REMARK    1  A    between atoms: _1  and  _3
REMARK    2  A    between atoms: _3  and  _4
REMARK    3  A    between atoms: _3  and  _6
REMARK    4  A    between atoms: _6  and  _7
REMARK    5  A    between atoms: _7  and  _8
REMARK    6  A    between atoms: _8  and  _9
REMARK    7  A    between atoms: _19  and  _20
REMARK    8  A    between atoms: _25  and  _27
REMARK    9  A    between atoms: _27  and  _28
REMARK   10  A    between atoms: _27  and  _30
REMARK   11  A    between atoms: _30  and  _31
REMARK   12  A    between atoms: _34  and  _36
REMARK   13  A    between atoms: _36  and  _37
REMARK   14  A    between atoms: _36  and  _39
REMARK   15  A    between atoms: _39  and  _40
REMARK   16  A    between atoms: _43  and  _45
REMARK   17  A    between atoms: _45  and  _46
REMARK   18  A    between atoms: _45  and  _48
REMARK   19  A    between atoms: _48  and  _49
REMARK   20  A    between atoms: _52  and  _54
REMARK   21  A    between atoms: _54  and  _55
REMARK   22  A    between atoms: _54  and  _57
REMARK   23  A    between atoms: _57  and  _58
REMARK   24  A    between atoms: _61  and  _63
REMARK   25  A    between atoms: _63  and  _64
REMARK   26  A    between atoms: _63  and  _66
REMARK   27  A    between atoms: _66  and  _67
REMARK   28  A    between atoms: _70  and  _72
REMARK   29  A    between atoms: _72  and  _73
REMARK   30  A    between atoms: _75  and  _77
REMARK   31  A    between atoms: _77  and  _78
REMARK   32  A    between atoms: _81  and  _83
REMARK   33  A    between atoms: _83  and  _84
REMARK   34  A    between atoms: _83  and  _86
REMARK   35  A    between atoms: _86  and  _87
REMARK   36  A    between atoms: _90  and  _92
REMARK   37  A    between atoms: _92  and  _93
REMARK   38  A    between atoms: _92  and  _95
REMARK   39  A    between atoms: _95  and  _96
REMARK   40  A    between atoms: _99  and  _101
REMARK   41  A    between atoms: _101  and  _102
REMARK   42  A    between atoms: _101  and  _104
REMARK   43  A    between atoms: _104  and  _105
REMARK   44  A    between atoms: _108  and  _110
REMARK   45  A    between atoms: _110  and  _111
REMARK   46  A    between atoms: _110  and  _113
REMARK   47  A    between atoms: _116  and  _118
REMARK   48  A    between atoms: _118  and  _119
REMARK   49  A    between atoms: _118  and  _121
REMARK   50  A    between atoms: _121  and  _122
REMARK   51  A    between atoms: _122  and  _123
REMARK   52  A    between atoms: _123  and  _124
REMARK   53  A    between atoms: _124  and  _125
REMARK   54  A    between atoms: _129  and  _131
REMARK   55  A    between atoms: _131  and  _132
REMARK   56  A    between atoms: _131  and  _134
REMARK   57  A    between atoms: _134  and  _135
REMARK   58  A    between atoms: _135  and  _136
REMARK   59  A    between atoms: _138  and  _140
REMARK   60  A    between atoms: _140  and  _141
REMARK   61  A    between atoms: _140  and  _143
REMARK   62  A    between atoms: _143  and  _144
REMARK   63  A    between atoms: _147  and  _149
REMARK   64  A    between atoms: _149  and  _150
REMARK   65  A    between atoms: _152  and  _154
REMARK   66  A    between atoms: _154  and  _155
REMARK   67  A    between atoms: _157  and  _159
REMARK   68  A    between atoms: _159  and  _160
REMARK   69  A    between atoms: _159  and  _162
REMARK   70  A    between atoms: _162  and  _163
REMARK   71  A    between atoms: _166  and  _168
REMARK   72  A    between atoms: _168  and  _169
REMARK   73  A    between atoms: _171  and  _173
REMARK   74  A    between atoms: _173  and  _174
REMARK   75  A    between atoms: _176  and  _178
REMARK   76  A    between atoms: _178  and  _179
REMARK   77  A    between atoms: _178  and  _181
REMARK   78  A    between atoms: _181  and  _182
REMARK   79  A    between atoms: _188  and  _190
REMARK   80  A    between atoms: _190  and  _191
REMARK   81  A    between atoms: _190  and  _193
REMARK   82  A    between atoms: _193  and  _194
REMARK   83  A    between atoms: _197  and  _199
REMARK   84  A    between atoms: _199  and  _200
REMARK   85  A    between atoms: _199  and  _202
REMARK   86  A    between atoms: _202  and  _203
REMARK   87  A    between atoms: _207  and  _208
REMARK   88  A    between atoms: _213  and  _215
REMARK   89  A    between atoms: _215  and  _216
REMARK   90  A    between atoms: _215  and  _218
REMARK   91  A    between atoms: _218  and  _219
REMARK   92  A    between atoms: _223  and  _224
REMARK   93  A    between atoms: _229  and  _231
REMARK   94  A    between atoms: _231  and  _232
REMARK   95  A    between atoms: _231  and  _234
REMARK   96  A    between atoms: _237  and  _239
REMARK   97  A    between atoms: _239  and  _240
REMARK   98  A    between atoms: _239  and  _242
REMARK   99  A    between atoms: _242  and  _243
REMARK  100  A    between atoms: _248  and  _250
REMARK  101  A    between atoms: _250  and  _251
REMARK  102  A    between atoms: _250  and  _253
REMARK  103  A    between atoms: _253  and  _254
REMARK  104  A    between atoms: _257  and  _259
REMARK  105  A    between atoms: _259  and  _260
REMARK  106  A    between atoms: _259  and  _262
REMARK  107  A    between atoms: _262  and  _263
REMARK  108  A    between atoms: _266  and  _268
REMARK  109  A    between atoms: _268  and  _269
REMARK  110  A    between atoms: _271  and  _273
REMARK  111  A    between atoms: _273  and  _274
REMARK  112  A    between atoms: _273  and  _276
REMARK  113  A    between atoms: _276  and  _277
REMARK  114  A    between atoms: _277  and  _278
REMARK  115  A    between atoms: _278  and  _279
REMARK  116  A    between atoms: _288  and  _290
REMARK  117  A    between atoms: _290  and  _291
REMARK  118  A    between atoms: _290  and  _293
REMARK  119  A    between atoms: _293  and  _294
REMARK  120  A    between atoms: _294  and  _295
REMARK  121  A    between atoms: _295  and  _296
REMARK  122  A    between atoms: _305  and  _307
REMARK  123  A    between atoms: _307  and  _308
REMARK  124  A    between atoms: _307  and  _310
REMARK  125  A    between atoms: _310  and  _311
REMARK  126  A    between atoms: _314  and  _316
REMARK  127  A    between atoms: _316  and  _317
REMARK  128  A    between atoms: _316  and  _319
REMARK  129  A    between atoms: _319  and  _320
REMARK  130  A    between atoms: _323  and  _325
REMARK  131  A    between atoms: _325  and  _326
REMARK  132  A    between atoms: _325  and  _328
REMARK  133  A    between atoms: _328  and  _329
REMARK  134  A    between atoms: _332  and  _334
REMARK  135  A    between atoms: _334  and  _335
REMARK  136  A    between atoms: _334  and  _337
REMARK  137  A    between atoms: _337  and  _338
REMARK  138  A    between atoms: _341  and  _343
REMARK  139  A    between atoms: _343  and  _344
REMARK  140  A    between atoms: _343  and  _346
REMARK  141  A    between atoms: _346  and  _347
REMARK  142  A    between atoms: _350  and  _352
REMARK  143  A    between atoms: _352  and  _353
REMARK  144  A    between atoms: _355  and  _357
REMARK  145  A    between atoms: _357  and  _358
REMARK  146  A    between atoms: _361  and  _363
REMARK  147  A    between atoms: _363  and  _364
REMARK  148  A    between atoms: _363  and  _366
REMARK  149  A    between atoms: _366  and  _367
REMARK  150  A    between atoms: _370  and  _372
REMARK  151  A    between atoms: _372  and  _373
REMARK  152  A    between atoms: _372  and  _375
REMARK  153  A    between atoms: _375  and  _376
REMARK  154  A    between atoms: _379  and  _381
REMARK  155  A    between atoms: _381  and  _382
REMARK  156  A    between atoms: _381  and  _384
REMARK  157  A    between atoms: _384  and  _385
REMARK  158  A    between atoms: _388  and  _390
REMARK  159  A    between atoms: _390  and  _391
REMARK  160  A    between atoms: _390  and  _393
REMARK  161  A    between atoms: _396  and  _398
REMARK  162  A    between atoms: _398  and  _399
REMARK  163  A    between atoms: _398  and  _401
REMARK  164  A    between atoms: _401  and  _402
REMARK  165  A    between atoms: _402  and  _403
REMARK  166  A    between atoms: _403  and  _404
REMARK  167  A    between atoms: _404  and  _405
REMARK  168  A    between atoms: _409  and  _411
REMARK  169  A    between atoms: _411  and  _412
REMARK  170  A    between atoms: _411  and  _414
REMARK  171  A    between atoms: _414  and  _415
REMARK  172  A    between atoms: _415  and  _416
REMARK  173  A    between atoms: _418  and  _420
REMARK  174  A    between atoms: _420  and  _421
REMARK  175  A    between atoms: _420  and  _423
REMARK  176  A    between atoms: _423  and  _424
REMARK  177  A    between atoms: _427  and  _429
REMARK  178  A    between atoms: _429  and  _430
REMARK  179  A    between atoms: _432  and  _434
REMARK  180  A    between atoms: _434  and  _435
REMARK  181  A    between atoms: _437  and  _439
REMARK  182  A    between atoms: _439  and  _440
REMARK  183  A    between atoms: _439  and  _442
REMARK  184  A    between atoms: _442  and  _443
REMARK  185  A    between atoms: _446  and  _448
REMARK  186  A    between atoms: _448  and  _449
REMARK  187  A    between atoms: _451  and  _453
REMARK  188  A    between atoms: _453  and  _454
REMARK  189  A    between atoms: _456  and  _458
REMARK  190  A    between atoms: _458  and  _459
REMARK  191  A    between atoms: _458  and  _461
REMARK  192  A    between atoms: _461  and  _462
REMARK  193  A    between atoms: _468  and  _470
REMARK  194  A    between atoms: _470  and  _471
REMARK  195  A    between atoms: _470  and  _473
REMARK  196  A    between atoms: _473  and  _474
REMARK  197  A    between atoms: _477  and  _479
REMARK  198  A    between atoms: _479  and  _480
REMARK  199  A    between atoms: _479  and  _482
REMARK  200  A    between atoms: _482  and  _483
REMARK  201  A    between atoms: _487  and  _488
REMARK  202  A    between atoms: _493  and  _495
REMARK  203  A    between atoms: _495  and  _496
REMARK  204  A    between atoms: _495  and  _498
REMARK  205  A    between atoms: _498  and  _499
REMARK  206  A    between atoms: _503  and  _504
REMARK  207  A    between atoms: _509  and  _511
REMARK  208  A    between atoms: _511  and  _512
REMARK  209  A    between atoms: _511  and  _514
REMARK  210  A    between atoms: _517  and  _519
REMARK  211  A    between atoms: _519  and  _520
REMARK  212  A    between atoms: _519  and  _522
REMARK  213  A    between atoms: _522  and  _523
REMARK  214  A    between atoms: _528  and  _530
REMARK  215  A    between atoms: _530  and  _531
REMARK  216  A    between atoms: _530  and  _533
REMARK  217  A    between atoms: _533  and  _534
REMARK  218  A    between atoms: _537  and  _539
REMARK  219  A    between atoms: _539  and  _540
REMARK  220  A    between atoms: _539  and  _542
REMARK  221  A    between atoms: _542  and  _543
REMARK  222  A    between atoms: _546  and  _548
REMARK  223  A    between atoms: _548  and  _549
REMARK  224  A    between atoms: _551  and  _553
REMARK  225  A    between atoms: _553  and  _554
REMARK  226  A    between atoms: _553  and  _556
REMARK  227  A    between atoms: _556  and  _557
REMARK  228  A    between atoms: _557  and  _558
REMARK  229  A    between atoms: _558  and  _559
REMARK                            x       y       z     vdW  Elec       q    Type
REMARK                         _______ _______ _______ _____ _____    ______ ____
ROOT
ATOM      1  C   GLY A   5       5.544  -2.001  20.363  0.00  0.00    +0.243 C 
ATOM      2  N   ALA A   6       6.830  -1.696  20.444  0.00  0.00    -0.297 N 
ATOM      3  H   ALA A   6       7.114  -0.752  20.774  0.00  0.00    +0.150 HD
ATOM      4  O   GLY A   5       5.170  -3.060  19.895  0.00  0.00    -0.273 OA
ENDROOT
BRANCH   2   5
ATOM      5  CA  ALA A   6       7.862  -2.675  20.073  0.00  0.00    +0.149 C 
ATOM      6  CB  ALA A   6       9.048  -1.959  19.404  0.00  0.00    +0.031 C 
BRANCH   5   7
ATOM      7  C   ALA A   6       8.378  -3.425  21.304  0.00  0.00    +0.241 C 
ATOM      8  O   ALA A   6       8.817  -2.839  22.290  0.00  0.00    -0.273 OA
ATOM      9  N   ASP A   7       8.354  -4.740  21.259  0.00  0.00    -0.297 N 
ATOM     10  H   ASP A   7       7.886  -5.278  20.502  0.00  0.00    +0.150 HD
BRANCH   9  11
ATOM     11  CA  ASP A   7       9.060  -5.377  22.393  0.00  0.00    +0.160 C 
BRANCH  11  12
ATOM     12  C   ASP A   7      10.588  -5.245  22.383  0.00  0.00    +0.241 C 
ATOM     13  O   ASP A   7      11.299  -5.265  23.382  0.00  0.00    -0.273 OA
ATOM     14  N   ASP A   8      11.074  -5.141  21.156  0.00  0.00    -0.297 N 
ATOM     15  H   ASP A   8      10.401  -5.031  20.370  0.00  0.00    +0.150 HD
BRANCH  14  16
ATOM     16  CA  ASP A   8      12.502  -5.172  20.841  0.00  0.00    +0.160 C 
BRANCH  16  17
ATOM     17  C   ASP A   8      12.982  -3.865  20.277  0.00  0.00    +0.241 C 
ATOM     18  N   THR A   9      14.301  -3.741  20.298  0.00  0.00    -0.295 N 
ATOM     19  H   THR A   9      14.868  -4.442  20.817  0.00  0.00    +0.150 HD
ATOM     20  O   ASP A   8      12.203  -3.041  19.828  0.00  0.00    -0.273 OA
BRANCH  18  21
ATOM     21  CA  THR A   9      14.977  -2.650  19.614  0.00  0.00    +0.176 C 
BRANCH  21  22
ATOM     22  C   THR A   9      15.572  -3.092  18.293  0.00  0.00    +0.243 C 
ATOM     23  O   THR A   9      16.299  -4.073  18.205  0.00  0.00    -0.273 OA
ATOM     24  N   VAL A  10      15.198  -2.334  17.257  0.00  0.00    -0.298 N 
ATOM     25  H   VAL A  10      14.579  -1.514  17.419  0.00  0.00    +0.150 HD
BRANCH  24  26
ATOM     26  CA  VAL A  10      15.651  -2.643  15.885  0.00  0.00    +0.137 C 
BRANCH  26  27
ATOM     27  CB  VAL A  10      14.494  -3.150  15.001  0.00  0.00    +0.026 C 
ATOM     28  CG2 VAL A  10      13.688  -4.268  15.654  0.00  0.00    +0.002 C 
ATOM     29  CG1 VAL A  10      15.041  -3.681  13.661  0.00  0.00    +0.002 C 
ENDBRANCH  26  27
BRANCH  26  30
ATOM     30  C   VAL A  10      16.324  -1.465  15.181  0.00  0.00    +0.227 C 
ATOM     31  O   VAL A  10      15.773  -0.384  15.019  0.00  0.00    -0.286 OA
ENDBRANCH  26  30
ENDBRANCH  24  26
ENDBRANCH  21  22
BRANCH  21  32
ATOM     32  CB  THR A   9      16.061  -2.048  20.526  0.00  0.00    +0.137 C 
ATOM     33  CG2 THR A   9      16.963  -0.985  19.858  0.00  0.00    +0.034 C 
BRANCH  32  34
ATOM     34  OG1 THR A   9      15.380  -1.458  21.640  0.00  0.00    -0.382 OA
ATOM     35  HG1 THR A   9      14.865  -2.156  22.117  0.00  0.00    +0.210 HD
ENDBRANCH  32  34
ENDBRANCH  21  32
ENDBRANCH  18  21
ENDBRANCH  16  17
BRANCH  16  36
ATOM     36  CB  ASP A   8      12.774  -6.216  19.748  0.00  0.00    +0.143 C 
BRANCH  36  37
ATOM     37  CG  ASP A   8      12.507  -7.612  20.269  0.00  0.00    +0.367 C 
ATOM     38  OD2 ASP A   8      13.152  -8.016  21.254  0.00  0.00    -0.246 OA
ATOM     39  OD1 ASP A   8      11.644  -8.287  19.694  0.00  0.00    -0.246 OA
ENDBRANCH  36  37
ENDBRANCH  16  36
ENDBRANCH  14  16
ENDBRANCH  11  12
BRANCH  11  40
ATOM     40  CB  ASP A   7       8.858  -6.894  22.405  0.00  0.00    +0.143 C 
BRANCH  40  41
ATOM     41  CG  ASP A   7       7.474  -7.361  22.685  0.00  0.00    +0.367 C 
ATOM     42  OD2 ASP A   7       6.606  -6.554  23.026  0.00  0.00    -0.246 OA
ATOM     43  OD1 ASP A   7       7.285  -8.570  22.590  0.00  0.00    -0.246 OA
ENDBRANCH  40  41
ENDBRANCH  11  40
ENDBRANCH   9  11
ENDBRANCH   5   7
ENDBRANCH   2   5
BRANCH   1  44
ATOM     44  CA  GLY A   5       4.572  -0.936  20.935  0.00  0.00    +0.176 C 
BRANCH  44  47
ATOM     45  C   THR A   4       5.381   0.389  22.804  0.00  0.00    +0.243 C 
ATOM     46  O   THR A   4       5.078  -0.491  23.584  0.00  0.00    -0.273 OA
ATOM     47  N   GLY A   5       5.132   0.307  21.499  0.00  0.00    -0.295 N 
ATOM     48  H   GLY A   5       5.332   1.117  20.878  0.00  0.00    +0.150 HD
BRANCH  45  49
ATOM     49  CA  THR A   4       6.076   1.646  23.242  0.00  0.00    +0.176 C 
BRANCH  49  51
ATOM     50  C   ASP A   3       7.755   2.089  21.615  0.00  0.00    +0.241 C 
ATOM     51  N   THR A   4       6.649   2.506  22.199  0.00  0.00    -0.295 N 
ATOM     52  H   THR A   4       6.201   3.406  21.932  0.00  0.00    +0.150 HD
ATOM     53  O   ASP A   3       8.260   1.021  21.906  0.00  0.00    -0.273 OA
BRANCH  50  54
ATOM     54  CA  ASP A   3       8.249   3.007  20.515  0.00  0.00    +0.160 C 
BRANCH  54  56
ATOM     55  C   LEU A   2       9.295   5.128  20.756  0.00  0.00    +0.241 C 
ATOM     56  N   ASP A   3       9.400   3.813  20.854  0.00  0.00    -0.297 N 
ATOM     57  H   ASP A   3      10.288   3.371  21.167  0.00  0.00    +0.150 HD
ATOM     58  O   LEU A   2       8.233   5.697  20.569  0.00  0.00    -0.273 OA
BRANCH  55  59
ATOM     59  CA  LEU A   2      10.628   5.848  20.835  0.00  0.00    +0.149 C 
BRANCH  59  61
ATOM     60  C   LEU A   1      11.502   5.693  18.610  0.00  0.00    +0.238 C 
ATOM     61  N   LEU A   2      11.031   6.483  19.574  0.00  0.00    -0.297 N 
ATOM     62  H   LEU A   2      10.952   7.511  19.438  0.00  0.00    +0.150 HD
ATOM     63  O   LEU A   1      11.741   4.504  18.777  0.00  0.00    -0.274 OA
BRANCH  60  64
ATOM     64  CA  LEU A   1      11.727   6.346  17.244  0.00  0.00    +0.145 C 
BRANCH  64  65
ATOM     65  N   LEU A   1      13.136   6.225  16.822  0.00  0.00    -0.238 NA
ATOM     66  H   LEU A   1      13.416   5.395  16.262  0.00  0.00    +0.142 HD
ENDBRANCH  64  65
BRANCH  64  67
ATOM     67  CB  LEU A   1      10.899   5.582  16.187  0.00  0.00    +0.026 C 
BRANCH  67  68
ATOM     68  CG  LEU A   1       9.380   5.676  16.319  0.00  0.00    +0.002 C 
ATOM     69  CD2 LEU A   1       8.859   7.021  15.847  0.00  0.00    +0.000 C 
ATOM     70  CD1 LEU A   1       8.699   4.546  15.546  0.00  0.00    +0.000 C 
ENDBRANCH  67  68
ENDBRANCH  64  67
ENDBRANCH  60  64
ENDBRANCH  59  61
BRANCH  59  71
ATOM     71  CB  LEU A   2      10.587   6.854  22.001  0.00  0.00    +0.029 C 
BRANCH  71  72
ATOM     72  CG  LEU A   2      11.845   7.699  22.108  0.00  0.00    +0.002 C 
ATOM     73  CD2 LEU A   2      11.593   8.839  23.074  0.00  0.00    +0.000 C 
ATOM     74  CD1 LEU A   2      13.081   6.873  22.437  0.00  0.00    +0.000 C 
ENDBRANCH  71  72
ENDBRANCH  59  71
ENDBRANCH  55  59
ENDBRANCH  54  56
BRANCH  54  75
ATOM     75  CB  ASP A   3       8.674   2.247  19.254  0.00  0.00    +0.143 C 
BRANCH  75  76
ATOM     76  CG  ASP A   3       7.549   1.481  18.605  0.00  0.00    +0.367 C 
ATOM     77  OD2 ASP A   3       6.376   1.543  19.029  0.00  0.00    -0.246 OA
ATOM     78  OD1 ASP A   3       7.890   0.802  17.648  0.00  0.00    -0.246 OA
ENDBRANCH  75  76
ENDBRANCH  54  75
ENDBRANCH  50  54
ENDBRANCH  49  51
BRANCH  49  79
ATOM     79  CB  THR A   4       5.088   2.408  24.107  0.00  0.00    +0.137 C 
ATOM     80  CG2 THR A   4       5.749   3.639  24.721  0.00  0.00    +0.034 C 
BRANCH  79  81
ATOM     81  OG1 THR A   4       3.978   2.800  23.322  0.00  0.00    -0.382 OA
ATOM     82  HG1 THR A   4       3.538   1.995  22.949  0.00  0.00    +0.210 HD
ENDBRANCH  79  81
ENDBRANCH  49  79
ENDBRANCH  45  49
ENDBRANCH  44  47
ENDBRANCH   1  44
TORSDOF 35
REMARK  Name = ../refined-set-2016/1hvi/1hvi_pocket.pdb
REMARK  229 active torsions:
REMARK  status: ('A' for Active; 'I' for Inactive)
REMARK    1  A    between atoms: _1  and  _3
REMARK    2  A    between atoms: _3  and  _4
REMARK    3  A    between atoms: _3  and  _6
REMARK    4  A    between atoms: _6  and  _7
REMARK    5  A    between atoms: _7  and  _8
REMARK    6  A    between atoms: _8  and  _9
REMARK    7  A    between atoms: _19  and  _20
REMARK    8  A    between atoms: _25  and  _27
REMARK    9  A    between atoms: _27  and  _28
REMARK   10  A    between atoms: _27  and  _30
REMARK   11  A    between atoms: _30  and  _31
REMARK   12  A    between atoms: _34  and  _36
REMARK   13  A    between atoms: _36  and  _37
REMARK   14  A    between atoms: _36  and  _39
REMARK   15  A    between atoms: _39  and  _40
REMARK   16  A    between atoms: _43  and  _45
REMARK   17  A    between atoms: _45  and  _46
REMARK   18  A    between atoms: _45  and  _48
REMARK   19  A    between atoms: _48  and  _49
REMARK   20  A    between atoms: _52  and  _54
REMARK   21  A    between atoms: _54  and  _55
REMARK   22  A    between atoms: _54  and  _57
REMARK   23  A    between atoms: _57  and  _58
REMARK   24  A    between atoms: _61  and  _63
REMARK   25  A    between atoms: _63  and  _64
REMARK   26  A    between atoms: _63  and  _66
REMARK   27  A    between atoms: _66  and  _67
REMARK   28  A    between atoms: _70  and  _72
REMARK   29  A    between atoms: _72  and  _73
REMARK   30  A    between atoms: _75  and  _77
REMARK   31  A    between atoms: _77  and  _78
REMARK   32  A    between atoms: _81  and  _83
REMARK   33  A    between atoms: _83  and  _84
REMARK   34  A    between atoms: _83  and  _86
REMARK   35  A    between atoms: _86  and  _87
REMARK   36  A    between atoms: _90  and  _92
REMARK   37  A    between atoms: _92  and  _93
REMARK   38  A    between atoms: _92  and  _95
REMARK   39  A    between atoms: _95  and  _96
REMARK   40  A    between atoms: _99  and  _101
REMARK   41  A    between atoms: _101  and  _102
REMARK   42  A    between atoms: _101  and  _104
REMARK   43  A    between atoms: _104  and  _105
REMARK   44  A    between atoms: _108  and  _110
REMARK   45  A    between atoms: _110  and  _111
REMARK   46  A    between atoms: _110  and  _113
REMARK   47  A    between atoms: _116  and  _118
REMARK   48  A    between atoms: _118  and  _119
REMARK   49  A    between atoms: _118  and  _121
REMARK   50  A    between atoms: _121  and  _122
REMARK   51  A    between atoms: _122  and  _123
REMARK   52  A    between atoms: _123  and  _124
REMARK   53  A    between atoms: _124  and  _125
REMARK   54  A    between atoms: _129  and  _131
REMARK   55  A    between atoms: _131  and  _132
REMARK   56  A    between atoms: _131  and  _134
REMARK   57  A    between atoms: _134  and  _135
REMARK   58  A    between atoms: _135  and  _136
REMARK   59  A    between atoms: _138  and  _140
REMARK   60  A    between atoms: _140  and  _141
REMARK   61  A    between atoms: _140  and  _143
REMARK   62  A    between atoms: _143  and  _144
REMARK   63  A    between atoms: _147  and  _149
REMARK   64  A    between atoms: _149  and  _150
REMARK   65  A    between atoms: _152  and  _154
REMARK   66  A    between atoms: _154  and  _155
REMARK   67  A    between atoms: _157  and  _159
REMARK   68  A    between atoms: _159  and  _160
REMARK   69  A    between atoms: _159  and  _162
REMARK   70  A    between atoms: _162  and  _163
REMARK   71  A    between atoms: _166  and  _168
REMARK   72  A    between atoms: _168  and  _169
REMARK   73  A    between atoms: _171  and  _173
REMARK   74  A    between atoms: _173  and  _174
REMARK   75  A    between atoms: _176  and  _178
REMARK   76  A    between atoms: _178  and  _179
REMARK   77  A    between atoms: _178  and  _181
REMARK   78  A    between atoms: _181  and  _182
REMARK   79  A    between atoms: _188  and  _190
REMARK   80  A    between atoms: _190  and  _191
REMARK   81  A    between atoms: _190  and  _193
REMARK   82  A    between atoms: _193  and  _194
REMARK   83  A    between atoms: _197  and  _199
REMARK   84  A    between atoms: _199  and  _200
REMARK   85  A    between atoms: _199  and  _202
REMARK   86  A    between atoms: _202  and  _203
REMARK   87  A    between atoms: _207  and  _208
REMARK   88  A    between atoms: _213  and  _215
REMARK   89  A    between atoms: _215  and  _216
REMARK   90  A    between atoms: _215  and  _218
REMARK   91  A    between atoms: _218  and  _219
REMARK   92  A    between atoms: _223  and  _224
REMARK   93  A    between atoms: _229  and  _231
REMARK   94  A    between atoms: _231  and  _232
REMARK   95  A    between atoms: _231  and  _234
REMARK   96  A    between atoms: _237  and  _239
REMARK   97  A    between atoms: _239  and  _240
REMARK   98  A    between atoms: _239  and  _242
REMARK   99  A    between atoms: _242  and  _243
REMARK  100  A    between atoms: _248  and  _250
REMARK  101  A    between atoms: _250  and  _251
REMARK  102  A    between atoms: _250  and  _253
REMARK  103  A    between atoms: _253  and  _254
REMARK  104  A    between atoms: _257  and  _259
REMARK  105  A    between atoms: _259  and  _260
REMARK  106  A    between atoms: _259  and  _262
REMARK  107  A    between atoms: _262  and  _263
REMARK  108  A    between atoms: _266  and  _268
REMARK  109  A    between atoms: _268  and  _269
REMARK  110  A    between atoms: _271  and  _273
REMARK  111  A    between atoms: _273  and  _274
REMARK  112  A    between atoms: _273  and  _276
REMARK  113  A    between atoms: _276  and  _277
REMARK  114  A    between atoms: _277  and  _278
REMARK  115  A    between atoms: _278  and  _279
REMARK  116  A    between atoms: _288  and  _290
REMARK  117  A    between atoms: _290  and  _291
REMARK  118  A    between atoms: _290  and  _293
REMARK  119  A    between atoms: _293  and  _294
REMARK  120  A    between atoms: _294  and  _295
REMARK  121  A    between atoms: _295  and  _296
REMARK  122  A    between atoms: _305  and  _307
REMARK  123  A    between atoms: _307  and  _308
REMARK  124  A    between atoms: _307  and  _310
REMARK  125  A    between atoms: _310  and  _311
REMARK  126  A    between atoms: _314  and  _316
REMARK  127  A    between atoms: _316  and  _317
REMARK  128  A    between atoms: _316  and  _319
REMARK  129  A    between atoms: _319  and  _320
REMARK  130  A    between atoms: _323  and  _325
REMARK  131  A    between atoms: _325  and  _326
REMARK  132  A    between atoms: _325  and  _328
REMARK  133  A    between atoms: _328  and  _329
REMARK  134  A    between atoms: _332  and  _334
REMARK  135  A    between atoms: _334  and  _335
REMARK  136  A    between atoms: _334  and  _337
REMARK  137  A    between atoms: _337  and  _338
REMARK  138  A    between atoms: _341  and  _343
REMARK  139  A    between atoms: _343  and  _344
REMARK  140  A    between atoms: _343  and  _346
REMARK  141  A    between atoms: _346  and  _347
REMARK  142  A    between atoms: _350  and  _352
REMARK  143  A    between atoms: _352  and  _353
REMARK  144  A    between atoms: _355  and  _357
REMARK  145  A    between atoms: _357  and  _358
REMARK  146  A    between atoms: _361  and  _363
REMARK  147  A    between atoms: _363  and  _364
REMARK  148  A    between atoms: _363  and  _366
REMARK  149  A    between atoms: _366  and  _367
REMARK  150  A    between atoms: _370  and  _372
REMARK  151  A    between atoms: _372  and  _373
REMARK  152  A    between atoms: _372  and  _375
REMARK  153  A    between atoms: _375  and  _376
REMARK  154  A    between atoms: _379  and  _381
REMARK  155  A    between atoms: _381  and  _382
REMARK  156  A    between atoms: _381  and  _384
REMARK  157  A    between atoms: _384  and  _385
REMARK  158  A    between atoms: _388  and  _390
REMARK  159  A    between atoms: _390  and  _391
REMARK  160  A    between atoms: _390  and  _393
REMARK  161  A    between atoms: _396  and  _398
REMARK  162  A    between atoms: _398  and  _399
REMARK  163  A    between atoms: _398  and  _401
REMARK  164  A    between atoms: _401  and  _402
REMARK  165  A    between atoms: _402  and  _403
REMARK  166  A    between atoms: _403  and  _404
REMARK  167  A    between atoms: _404  and  _405
REMARK  168  A    between atoms: _409  and  _411
REMARK  169  A    between atoms: _411  and  _412
REMARK  170  A    between atoms: _411  and  _414
REMARK  171  A    between atoms: _414  and  _415
REMARK  172  A    between atoms: _415  and  _416
REMARK  173  A    between atoms: _418  and  _420
REMARK  174  A    between atoms: _420  and  _421
REMARK  175  A    between atoms: _420  and  _423
REMARK  176  A    between atoms: _423  and  _424
REMARK  177  A    between atoms: _427  and  _429
REMARK  178  A    between atoms: _429  and  _430
REMARK  179  A    between atoms: _432  and  _434
REMARK  180  A    between atoms: _434  and  _435
REMARK  181  A    between atoms: _437  and  _439
REMARK  182  A    between atoms: _439  and  _440
REMARK  183  A    between atoms: _439  and  _442
REMARK  184  A    between atoms: _442  and  _443
REMARK  185  A    between atoms: _446  and  _448
REMARK  186  A    between atoms: _448  and  _449
REMARK  187  A    between atoms: _451  and  _453
REMARK  188  A    between atoms: _453  and  _454
REMARK  189  A    between atoms: _456  and  _458
REMARK  190  A    between atoms: _458  and  _459
REMARK  191  A    between atoms: _458  and  _461
REMARK  192  A    between atoms: _461  and  _462
REMARK  193  A    between atoms: _468  and  _470
REMARK  194  A    between atoms: _470  and  _471
REMARK  195  A    between atoms: _470  and  _473
REMARK  196  A    between atoms: _473  and  _474
REMARK  197  A    between atoms: _477  and  _479
REMARK  198  A    between atoms: _479  and  _480
REMARK  199  A    between atoms: _479  and  _482
REMARK  200  A    between atoms: _482  and  _483
REMARK  201  A    between atoms: _487  and  _488
REMARK  202  A    between atoms: _493  and  _495
REMARK  203  A    between atoms: _495  and  _496
REMARK  204  A    between atoms: _495  and  _498
REMARK  205  A    between atoms: _498  and  _499
REMARK  206  A    between atoms: _503  and  _504
REMARK  207  A    between atoms: _509  and  _511
REMARK  208  A    between atoms: _511  and  _512
REMARK  209  A    between atoms: _511  and  _514
REMARK  210  A    between atoms: _517  and  _519
REMARK  211  A    between atoms: _519  and  _520
REMARK  212  A    between atoms: _519  and  _522
REMARK  213  A    between atoms: _522  and  _523
REMARK  214  A    between atoms: _528  and  _530
REMARK  215  A    between atoms: _530  and  _531
REMARK  216  A    between atoms: _530  and  _533
REMARK  217  A    between atoms: _533  and  _534
REMARK  218  A    between atoms: _537  and  _539
REMARK  219  A    between atoms: _539  and  _540
REMARK  220  A    between atoms: _539  and  _542
REMARK  221  A    between atoms: _542  and  _543
REMARK  222  A    between atoms: _546  and  _548
REMARK  223  A    between atoms: _548  and  _549
REMARK  224  A    between atoms: _551  and  _553
REMARK  225  A    between atoms: _553  and  _554
REMARK  226  A    between atoms: _553  and  _556
REMARK  227  A    between atoms: _556  and  _557
REMARK  228  A    between atoms: _557  and  _558
REMARK  229  A    between atoms: _558  and  _559
REMARK                            x       y       z     vdW  Elec       q    Type
REMARK                         _______ _______ _______ _____ _____    ______ ____
ROOT
ATOM      1  C   GLY A   5       4.130  -6.673  11.661  0.00  0.00    +0.243 C 
ATOM      2  O   GLY A   5       3.561  -7.726  11.456  0.00  0.00    -0.273 OA
ATOM      3  N   ILE A   6       3.609  -5.530  11.281  0.00  0.00    -0.297 N 
ATOM      4  H   ILE A   6       4.110  -4.621  11.351  0.00  0.00    +0.150 HD
ENDROOT
BRANCH   3   5
ATOM      5  CA  ILE A   6       2.256  -5.662  10.751  0.00  0.00    +0.149 C 
BRANCH   5   6
ATOM      6  C   ILE A   6       2.077  -6.490   9.448  0.00  0.00    +0.241 C 
ATOM      7  O   ILE A   6       1.107  -7.208   9.220  0.00  0.00    -0.273 OA
ATOM      8  N   GLY A   7       3.090  -6.393   8.586  0.00  0.00    -0.295 N 
ATOM      9  H   GLY A   7       3.968  -5.889   8.826  0.00  0.00    +0.150 HD
BRANCH   8  10
ATOM     10  CA  GLY A   7       2.899  -7.037   7.279  0.00  0.00    +0.176 C 
BRANCH  10  11
ATOM     11  C   GLY A   7       3.589  -8.389   7.096  0.00  0.00    +0.243 C 
ATOM     12  N   GLY A   8       4.192  -8.871   8.168  0.00  0.00    -0.295 N 
ATOM     13  H   GLY A   8       4.087  -8.393   9.086  0.00  0.00    +0.150 HD
ATOM     14  O   GLY A   7       3.601  -8.981   6.038  0.00  0.00    -0.273 OA
BRANCH  12  15
ATOM     15  CA  GLY A   8       5.003 -10.073   8.059  0.00  0.00    +0.176 C 
BRANCH  15  16
ATOM     16  C   GLY A   8       6.336  -9.957   8.785  0.00  0.00    +0.243 C 
ATOM     17  O   GLY A   8       6.531  -9.151   9.681  0.00  0.00    -0.273 OA
ATOM     18  N   PHE A   9       7.251 -10.813   8.393  0.00  0.00    -0.297 N 
ATOM     19  H   PHE A   9       7.080 -11.402   7.553  0.00  0.00    +0.150 HD
BRANCH  18  20
ATOM     20  CA  PHE A   9       8.524 -10.946   9.137  0.00  0.00    +0.153 C 
BRANCH  20  21
ATOM     21  C   PHE A   9       9.756 -10.527   8.385  0.00  0.00    +0.241 C 
ATOM     22  N   ILE A  10      10.751 -10.103   9.112  0.00  0.00    -0.298 N 
ATOM     23  H   ILE A  10      10.654  -9.941  10.135  0.00  0.00    +0.150 HD
ATOM     24  O   PHE A   9       9.846 -10.615   7.177  0.00  0.00    -0.273 OA
BRANCH  22  25
ATOM     25  CA  ILE A  10      12.009  -9.869   8.409  0.00  0.00    +0.137 C 
BRANCH  25  26
ATOM     26  C   ILE A  10      13.128 -10.534   9.141  0.00  0.00    +0.227 C 
ATOM     27  O   ILE A  10      13.031 -10.808  10.335  0.00  0.00    -0.286 OA
ENDBRANCH  25  26
BRANCH  25  28
ATOM     28  CB  ILE A  10      12.350  -8.376   8.319  0.00  0.00    +0.026 C 
ATOM     29  CG2 ILE A  10      11.379  -7.576   7.450  0.00  0.00    +0.002 C 
BRANCH  28  30
ATOM     30  CG1 ILE A  10      12.464  -7.685   9.673  0.00  0.00    +0.002 C 
ATOM     31  CD1 ILE A  10      12.992  -6.254   9.502  0.00  0.00    +0.000 C 
ENDBRANCH  28  30
ENDBRANCH  25  28
ENDBRANCH  22  25
ENDBRANCH  20  21
BRANCH  20  32
ATOM     32  CB  PHE A   9       8.813 -12.406   9.535  0.00  0.00    +0.055 C 
BRANCH  32  33
ATOM     33  CG  PHE A   9       7.882 -12.919  10.595  0.00  0.00    -0.020 A 
ATOM     34  CD2 PHE A   9       8.395 -13.127  11.887  0.00  0.00    -0.004 A 
ATOM     35  CE2 PHE A   9       7.511 -13.539  12.908  0.00  0.00    -0.000 A 
ATOM     36  CZ  PHE A   9       6.138 -13.744  12.639  0.00  0.00    -0.000 A 
ATOM     37  CE1 PHE A   9       5.640 -13.544  11.341  0.00  0.00    -0.000 A 
ATOM     38  CD1 PHE A   9       6.511 -13.129  10.316  0.00  0.00    -0.004 A 
ENDBRANCH  32  33
ENDBRANCH  20  32
ENDBRANCH  18  20
ENDBRANCH  15  16
ENDBRANCH  12  15
ENDBRANCH  10  11
ENDBRANCH   8  10
ENDBRANCH   5   6
BRANCH   5  39
ATOM     39  CB  ILE A   6       1.607  -4.245  10.733  0.00  0.00    +0.027 C 
ATOM     40  CG2 ILE A   6       2.001  -3.387   9.539  0.00  0.00    +0.002 C 
BRANCH  39  41
ATOM     41  CG1 ILE A   6       0.091  -4.343  10.852  0.00  0.00    +0.002 C 
ATOM     42  CD1 ILE A   6      -0.611  -3.039  11.165  0.00  0.00    +0.000 C 
ENDBRANCH  39  41
ENDBRANCH   5  39
ENDBRANCH   3   5
BRANCH   1  43
ATOM     43  CA  GLY A   5       5.476  -6.676  12.329  0.00  0.00    +0.176 C 
BRANCH  43  46
ATOM     44  C   GLY A   4       6.919  -8.370  13.101  0.00  0.00    +0.243 C 
ATOM     45  O   GLY A   4       7.176  -7.704  14.095  0.00  0.00    -0.273 OA
ATOM     46  N   GLY A   5       6.115  -7.975  12.160  0.00  0.00    -0.295 N 
ATOM     47  H   GLY A   5       5.935  -8.562  11.320  0.00  0.00    +0.150 HD
BRANCH  44  48
ATOM     48  CA  GLY A   4       7.481  -9.730  12.843  0.00  0.00    +0.176 C 
BRANCH  48  50
ATOM     49  C   ILE A   3       9.826 -10.051  12.963  0.00  0.00    +0.241 C 
ATOM     50  N   GLY A   4       8.684  -9.989  13.597  0.00  0.00    -0.295 N 
ATOM     51  H   GLY A   4       8.643 -10.124  14.627  0.00  0.00    +0.150 HD
ATOM     52  O   ILE A   3       9.935  -9.818  11.774  0.00  0.00    -0.273 OA
BRANCH  49  53
ATOM     53  CA  ILE A   3      10.983 -10.531  13.817  0.00  0.00    +0.149 C 
BRANCH  53  56
ATOM     54  C   MET A   2      12.261 -12.533  13.489  0.00  0.00    +0.241 C 
ATOM     55  O   MET A   2      11.747 -13.046  14.478  0.00  0.00    -0.273 OA
ATOM     56  N   ILE A   3      12.026 -11.281  13.090  0.00  0.00    -0.297 N 
ATOM     57  H   ILE A   3      12.554 -10.853  12.303  0.00  0.00    +0.150 HD
BRANCH  54  58
ATOM     58  CA  MET A   2      13.262 -13.293  12.631  0.00  0.00    +0.149 C 
BRANCH  58  60
ATOM     59  C   LYS A   1      15.621 -13.455  13.145  0.00  0.00    +0.238 C 
ATOM     60  N   MET A   2      14.391 -13.893  13.369  0.00  0.00    -0.297 N 
ATOM     61  H   MET A   2      14.222 -14.653  14.059  0.00  0.00    +0.150 HD
ATOM     62  O   LYS A   1      15.865 -12.679  12.240  0.00  0.00    -0.274 OA
BRANCH  59  63
ATOM     63  CA  LYS A   1      16.710 -13.983  14.082  0.00  0.00    +0.145 C 
BRANCH  63  64
ATOM     64  N   LYS A   1      18.044 -13.964  13.480  0.00  0.00    -0.238 NA
ATOM     65  H   LYS A   1      18.290 -13.311  12.709  0.00  0.00    +0.142 HD
ENDBRANCH  63  64
BRANCH  63  66
ATOM     66  CB  LYS A   1      16.792 -13.137  15.370  0.00  0.00    +0.026 C 
BRANCH  66  67
ATOM     67  CG  LYS A   1      15.709 -13.470  16.372  0.00  0.00    -0.000 C 
BRANCH  67  68
ATOM     68  CD  LYS A   1      15.595 -12.387  17.431  0.00  0.00    -0.024 C 
BRANCH  68  69
ATOM     69  CE  LYS A   1      14.521 -12.772  18.443  0.00  0.00    -0.086 C 
BRANCH  69  70
ATOM     70  NZ  LYS A   1      14.496 -11.748  19.497  0.00  0.00    +0.380 N 
ATOM     71  HZ1 LYS A   1      13.769 -11.992  20.199  0.00  0.00    -0.089 HD
ATOM     72  HZ2 LYS A   1      15.426 -11.706  19.960  0.00  0.00    -0.089 HD
ATOM     73  HZ3 LYS A   1      14.276 -10.823  19.075  0.00  0.00    -0.089 HD
ENDBRANCH  69  70
ENDBRANCH  68  69
ENDBRANCH  67  68
ENDBRANCH  66  67
ENDBRANCH  63  66
ENDBRANCH  59  63
ENDBRANCH  58  60
BRANCH  58  74
ATOM     74  CB  MET A   2      12.532 -14.357  11.798  0.00  0.00    +0.041 C 
BRANCH  74  75
ATOM     75  CG  MET A   2      13.337 -14.345  10.492  0.00  0.00    +0.060 C 
BRANCH  75  76
ATOM     76  SD  MET A   2      13.031 -15.701   9.408  0.00  0.00    -0.139 S 
ATOM     77  CE  MET A   2      11.414 -15.225   8.761  0.00  0.00    +0.069 C 
ENDBRANCH  75  76
ENDBRANCH  74  75
ENDBRANCH  58  74
ENDBRANCH  54  58
ENDBRANCH  53  56
BRANCH  53  78
ATOM     78  CB  ILE A   3      11.531  -9.363  14.634  0.00  0.00    +0.027 C 
ATOM     79  CG2 ILE A   3      11.978  -9.749  16.032  0.00  0.00    +0.002 C 
BRANCH  78  80
ATOM     80  CG1 ILE A   3      12.597  -8.588  13.920  0.00  0.00    +0.002 C 
ATOM     81  CD1 ILE A   3      11.907  -7.388  13.280  0.00  0.00    +0.000 C 
ENDBRANCH  78  80
ENDBRANCH  53  78
ENDBRANCH  49  53
ENDBRANCH  48  50
ENDBRANCH  44  48
ENDBRANCH  43  46
ENDBRANCH   1  43
TORSDOF 36
REMARK  Name = ../refined-set-2016/1hvi/1hvi_pocket.pdb
REMARK  229 active torsions:
REMARK  status: ('A' for Active; 'I' for Inactive)
REMARK    1  A    between atoms: _1  and  _3
REMARK    2  A    between atoms: _3  and  _4
REMARK    3  A    between atoms: _3  and  _6
REMARK    4  A    between atoms: _6  and  _7
REMARK    5  A    between atoms: _7  and  _8
REMARK    6  A    between atoms: _8  and  _9
REMARK    7  A    between atoms: _19  and  _20
REMARK    8  A    between atoms: _25  and  _27
REMARK    9  A    between atoms: _27  and  _28
REMARK   10  A    between atoms: _27  and  _30
REMARK   11  A    between atoms: _30  and  _31
REMARK   12  A    between atoms: _34  and  _36
REMARK   13  A    between atoms: _36  and  _37
REMARK   14  A    between atoms: _36  and  _39
REMARK   15  A    between atoms: _39  and  _40
REMARK   16  A    between atoms: _43  and  _45
REMARK   17  A    between atoms: _45  and  _46
REMARK   18  A    between atoms: _45  and  _48
REMARK   19  A    between atoms: _48  and  _49
REMARK   20  A    between atoms: _52  and  _54
REMARK   21  A    between atoms: _54  and  _55
REMARK   22  A    between atoms: _54  and  _57
REMARK   23  A    between atoms: _57  and  _58
REMARK   24  A    between atoms: _61  and  _63
REMARK   25  A    between atoms: _63  and  _64
REMARK   26  A    between atoms: _63  and  _66
REMARK   27  A    between atoms: _66  and  _67
REMARK   28  A    between atoms: _70  and  _72
REMARK   29  A    between atoms: _72  and  _73
REMARK   30  A    between atoms: _75  and  _77
REMARK   31  A    between atoms: _77  and  _78
REMARK   32  A    between atoms: _81  and  _83
REMARK   33  A    between atoms: _83  and  _84
REMARK   34  A    between atoms: _83  and  _86
REMARK   35  A    between atoms: _86  and  _87
REMARK   36  A    between atoms: _90  and  _92
REMARK   37  A    between atoms: _92  and  _93
REMARK   38  A    between atoms: _92  and  _95
REMARK   39  A    between atoms: _95  and  _96
REMARK   40  A    between atoms: _99  and  _101
REMARK   41  A    between atoms: _101  and  _102
REMARK   42  A    between atoms: _101  and  _104
REMARK   43  A    between atoms: _104  and  _105
REMARK   44  A    between atoms: _108  and  _110
REMARK   45  A    between atoms: _110  and  _111
REMARK   46  A    between atoms: _110  and  _113
REMARK   47  A    between atoms: _116  and  _118
REMARK   48  A    between atoms: _118  and  _119
REMARK   49  A    between atoms: _118  and  _121
REMARK   50  A    between atoms: _121  and  _122
REMARK   51  A    between atoms: _122  and  _123
REMARK   52  A    between atoms: _123  and  _124
REMARK   53  A    between atoms: _124  and  _125
REMARK   54  A    between atoms: _129  and  _131
REMARK   55  A    between atoms: _131  and  _132
REMARK   56  A    between atoms: _131  and  _134
REMARK   57  A    between atoms: _134  and  _135
REMARK   58  A    between atoms: _135  and  _136
REMARK   59  A    between atoms: _138  and  _140
REMARK   60  A    between atoms: _140  and  _141
REMARK   61  A    between atoms: _140  and  _143
REMARK   62  A    between atoms: _143  and  _144
REMARK   63  A    between atoms: _147  and  _149
REMARK   64  A    between atoms: _149  and  _150
REMARK   65  A    between atoms: _152  and  _154
REMARK   66  A    between atoms: _154  and  _155
REMARK   67  A    between atoms: _157  and  _159
REMARK   68  A    between atoms: _159  and  _160
REMARK   69  A    between atoms: _159  and  _162
REMARK   70  A    between atoms: _162  and  _163
REMARK   71  A    between atoms: _166  and  _168
REMARK   72  A    between atoms: _168  and  _169
REMARK   73  A    between atoms: _171  and  _173
REMARK   74  A    between atoms: _173  and  _174
REMARK   75  A    between atoms: _176  and  _178
REMARK   76  A    between atoms: _178  and  _179
REMARK   77  A    between atoms: _178  and  _181
REMARK   78  A    between atoms: _181  and  _182
REMARK   79  A    between atoms: _188  and  _190
REMARK   80  A    between atoms: _190  and  _191
REMARK   81  A    between atoms: _190  and  _193
REMARK   82  A    between atoms: _193  and  _194
REMARK   83  A    between atoms: _197  and  _199
REMARK   84  A    between atoms: _199  and  _200
REMARK   85  A    between atoms: _199  and  _202
REMARK   86  A    between atoms: _202  and  _203
REMARK   87  A    between atoms: _207  and  _208
REMARK   88  A    between atoms: _213  and  _215
REMARK   89  A    between atoms: _215  and  _216
REMARK   90  A    between atoms: _215  and  _218
REMARK   91  A    between atoms: _218  and  _219
REMARK   92  A    between atoms: _223  and  _224
REMARK   93  A    between atoms: _229  and  _231
REMARK   94  A    between atoms: _231  and  _232
REMARK   95  A    between atoms: _231  and  _234
REMARK   96  A    between atoms: _237  and  _239
REMARK   97  A    between atoms: _239  and  _240
REMARK   98  A    between atoms: _239  and  _242
REMARK   99  A    between atoms: _242  and  _243
REMARK  100  A    between atoms: _248  and  _250
REMARK  101  A    between atoms: _250  and  _251
REMARK  102  A    between atoms: _250  and  _253
REMARK  103  A    between atoms: _253  and  _254
REMARK  104  A    between atoms: _257  and  _259
REMARK  105  A    between atoms: _259  and  _260
REMARK  106  A    between atoms: _259  and  _262
REMARK  107  A    between atoms: _262  and  _263
REMARK  108  A    between atoms: _266  and  _268
REMARK  109  A    between atoms: _268  and  _269
REMARK  110  A    between atoms: _271  and  _273
REMARK  111  A    between atoms: _273  and  _274
REMARK  112  A    between atoms: _273  and  _276
REMARK  113  A    between atoms: _276  and  _277
REMARK  114  A    between atoms: _277  and  _278
REMARK  115  A    between atoms: _278  and  _279
REMARK  116  A    between atoms: _288  and  _290
REMARK  117  A    between atoms: _290  and  _291
REMARK  118  A    between atoms: _290  and  _293
REMARK  119  A    between atoms: _293  and  _294
REMARK  120  A    between atoms: _294  and  _295
REMARK  121  A    between atoms: _295  and  _296
REMARK  122  A    between atoms: _305  and  _307
REMARK  123  A    between atoms: _307  and  _308
REMARK  124  A    between atoms: _307  and  _310
REMARK  125  A    between atoms: _310  and  _311
REMARK  126  A    between atoms: _314  and  _316
REMARK  127  A    between atoms: _316  and  _317
REMARK  128  A    between atoms: _316  and  _319
REMARK  129  A    between atoms: _319  and  _320
REMARK  130  A    between atoms: _323  and  _325
REMARK  131  A    between atoms: _325  and  _326
REMARK  132  A    between atoms: _325  and  _328
REMARK  133  A    between atoms: _328  and  _329
REMARK  134  A    between atoms: _332  and  _334
REMARK  135  A    between atoms: _334  and  _335
REMARK  136  A    between atoms: _334  and  _337
REMARK  137  A    between atoms: _337  and  _338
REMARK  138  A    between atoms: _341  and  _343
REMARK  139  A    between atoms: _343  and  _344
REMARK  140  A    between atoms: _343  and  _346
REMARK  141  A    between atoms: _346  and  _347
REMARK  142  A    between atoms: _350  and  _352
REMARK  143  A    between atoms: _352  and  _353
REMARK  144  A    between atoms: _355  and  _357
REMARK  145  A    between atoms: _357  and  _358
REMARK  146  A    between atoms: _361  and  _363
REMARK  147  A    between atoms: _363  and  _364
REMARK  148  A    between atoms: _363  and  _366
REMARK  149  A    between atoms: _366  and  _367
REMARK  150  A    between atoms: _370  and  _372
REMARK  151  A    between atoms: _372  and  _373
REMARK  152  A    between atoms: _372  and  _375
REMARK  153  A    between atoms: _375  and  _376
REMARK  154  A    between atoms: _379  and  _381
REMARK  155  A    between atoms: _381  and  _382
REMARK  156  A    between atoms: _381  and  _384
REMARK  157  A    between atoms: _384  and  _385
REMARK  158  A    between atoms: _388  and  _390
REMARK  159  A    between atoms: _390  and  _391
REMARK  160  A    between atoms: _390  and  _393
REMARK  161  A    between atoms: _396  and  _398
REMARK  162  A    between atoms: _398  and  _399
REMARK  163  A    between atoms: _398  and  _401
REMARK  164  A    between atoms: _401  and  _402
REMARK  165  A    between atoms: _402  and  _403
REMARK  166  A    between atoms: _403  and  _404
REMARK  167  A    between atoms: _404  and  _405
REMARK  168  A    between atoms: _409  and  _411
REMARK  169  A    between atoms: _411  and  _412
REMARK  170  A    between atoms: _411  and  _414
REMARK  171  A    between atoms: _414  and  _415
REMARK  172  A    between atoms: _415  and  _416
REMARK  173  A    between atoms: _418  and  _420
REMARK  174  A    between atoms: _420  and  _421
REMARK  175  A    between atoms: _420  and  _423
REMARK  176  A    between atoms: _423  and  _424
REMARK  177  A    between atoms: _427  and  _429
REMARK  178  A    between atoms: _429  and  _430
REMARK  179  A    between atoms: _432  and  _434
REMARK  180  A    between atoms: _434  and  _435
REMARK  181  A    between atoms: _437  and  _439
REMARK  182  A    between atoms: _439  and  _440
REMARK  183  A    between atoms: _439  and  _442
REMARK  184  A    between atoms: _442  and  _443
REMARK  185  A    between atoms: _446  and  _448
REMARK  186  A    between atoms: _448  and  _449
REMARK  187  A    between atoms: _451  and  _453
REMARK  188  A    between atoms: _453  and  _454
REMARK  189  A    between atoms: _456  and  _458
REMARK  190  A    between atoms: _458  and  _459
REMARK  191  A    between atoms: _458  and  _461
REMARK  192  A    between atoms: _461  and  _462
REMARK  193  A    between atoms: _468  and  _470
REMARK  194  A    between atoms: _470  and  _471
REMARK  195  A    between atoms: _470  and  _473
REMARK  196  A    between atoms: _473  and  _474
REMARK  197  A    between atoms: _477  and  _479
REMARK  198  A    between atoms: _479  and  _480
REMARK  199  A    between atoms: _479  and  _482
REMARK  200  A    between atoms: _482  and  _483
REMARK  201  A    between atoms: _487  and  _488
REMARK  202  A    between atoms: _493  and  _495
REMARK  203  A    between atoms: _495  and  _496
REMARK  204  A    between atoms: _495  and  _498
REMARK  205  A    between atoms: _498  and  _499
REMARK  206  A    between atoms: _503  and  _504
REMARK  207  A    between atoms: _509  and  _511
REMARK  208  A    between atoms: _511  and  _512
REMARK  209  A    between atoms: _511  and  _514
REMARK  210  A    between atoms: _517  and  _519
REMARK  211  A    between atoms: _519  and  _520
REMARK  212  A    between atoms: _519  and  _522
REMARK  213  A    between atoms: _522  and  _523
REMARK  214  A    between atoms: _528  and  _530
REMARK  215  A    between atoms: _530  and  _531
REMARK  216  A    between atoms: _530  and  _533
REMARK  217  A    between atoms: _533  and  _534
REMARK  218  A    between atoms: _537  and  _539
REMARK  219  A    between atoms: _539  and  _540
REMARK  220  A    between atoms: _539  and  _542
REMARK  221  A    between atoms: _542  and  _543
REMARK  222  A    between atoms: _546  and  _548
REMARK  223  A    between atoms: _548  and  _549
REMARK  224  A    between atoms: _551  and  _553
REMARK  225  A    between atoms: _553  and  _554
REMARK  226  A    between atoms: _553  and  _556
REMARK  227  A    between atoms: _556  and  _557
REMARK  228  A    between atoms: _557  and  _558
REMARK  229  A    between atoms: _558  and  _559
REMARK                            x       y       z     vdW  Elec       q    Type
REMARK                         _______ _______ _______ _____ _____    ______ ____
ROOT
ATOM      1  CA  LEU A   1      18.480  -6.309  16.432  0.00  0.00    +0.133 C 
ENDROOT
BRANCH   1   2
ATOM      2  N   LEU A   1      18.643  -5.589  17.709  0.00  0.00    -0.239 NA
ATOM      3  H   LEU A   1      17.900  -4.930  18.018  0.00  0.00    +0.142 HD
ENDBRANCH   1   2
BRANCH   1   4
ATOM      4  C   LEU A   1      18.822  -5.426  15.242  0.00  0.00    +0.224 C 
ATOM      5  O   LEU A   1      18.439  -4.271  15.153  0.00  0.00    -0.287 OA
ENDBRANCH   1   4
BRANCH   1   6
ATOM      6  CB  LEU A   1      17.021  -6.789  16.241  0.00  0.00    +0.025 C 
BRANCH   6   7
ATOM      7  CG  LEU A   1      16.420  -7.555  17.425  0.00  0.00    +0.002 C 
ATOM      8  CD2 LEU A   1      17.178  -8.831  17.774  0.00  0.00    +0.000 C 
ATOM      9  CD1 LEU A   1      14.991  -7.935  17.084  0.00  0.00    +0.000 C 
ENDBRANCH   6   7
ENDBRANCH   1   6
TORSDOF 4
REMARK  Name = ../refined-set-2016/1hvi/1hvi_pocket.pdb
REMARK  229 active torsions:
REMARK  status: ('A' for Active; 'I' for Inactive)
REMARK    1  A    between atoms: _1  and  _3
REMARK    2  A    between atoms: _3  and  _4
REMARK    3  A    between atoms: _3  and  _6
REMARK    4  A    between atoms: _6  and  _7
REMARK    5  A    between atoms: _7  and  _8
REMARK    6  A    between atoms: _8  and  _9
REMARK    7  A    between atoms: _19  and  _20
REMARK    8  A    between atoms: _25  and  _27
REMARK    9  A    between atoms: _27  and  _28
REMARK   10  A    between atoms: _27  and  _30
REMARK   11  A    between atoms: _30  and  _31
REMARK   12  A    between atoms: _34  and  _36
REMARK   13  A    between atoms: _36  and  _37
REMARK   14  A    between atoms: _36  and  _39
REMARK   15  A    between atoms: _39  and  _40
REMARK   16  A    between atoms: _43  and  _45
REMARK   17  A    between atoms: _45  and  _46
REMARK   18  A    between atoms: _45  and  _48
REMARK   19  A    between atoms: _48  and  _49
REMARK   20  A    between atoms: _52  and  _54
REMARK   21  A    between atoms: _54  and  _55
REMARK   22  A    between atoms: _54  and  _57
REMARK   23  A    between atoms: _57  and  _58
REMARK   24  A    between atoms: _61  and  _63
REMARK   25  A    between atoms: _63  and  _64
REMARK   26  A    between atoms: _63  and  _66
REMARK   27  A    between atoms: _66  and  _67
REMARK   28  A    between atoms: _70  and  _72
REMARK   29  A    between atoms: _72  and  _73
REMARK   30  A    between atoms: _75  and  _77
REMARK   31  A    between atoms: _77  and  _78
REMARK   32  A    between atoms: _81  and  _83
REMARK   33  A    between atoms: _83  and  _84
REMARK   34  A    between atoms: _83  and  _86
REMARK   35  A    between atoms: _86  and  _87
REMARK   36  A    between atoms: _90  and  _92
REMARK   37  A    between atoms: _92  and  _93
REMARK   38  A    between atoms: _92  and  _95
REMARK   39  A    between atoms: _95  and  _96
REMARK   40  A    between atoms: _99  and  _101
REMARK   41  A    between atoms: _101  and  _102
REMARK   42  A    between atoms: _101  and  _104
REMARK   43  A    between atoms: _104  and  _105
REMARK   44  A    between atoms: _108  and  _110
REMARK   45  A    between atoms: _110  and  _111
REMARK   46  A    between atoms: _110  and  _113
REMARK   47  A    between atoms: _116  and  _118
REMARK   48  A    between atoms: _118  and  _119
REMARK   49  A    between atoms: _118  and  _121
REMARK   50  A    between atoms: _121  and  _122
REMARK   51  A    between atoms: _122  and  _123
REMARK   52  A    between atoms: _123  and  _124
REMARK   53  A    between atoms: _124  and  _125
REMARK   54  A    between atoms: _129  and  _131
REMARK   55  A    between atoms: _131  and  _132
REMARK   56  A    between atoms: _131  and  _134
REMARK   57  A    between atoms: _134  and  _135
REMARK   58  A    between atoms: _135  and  _136
REMARK   59  A    between atoms: _138  and  _140
REMARK   60  A    between atoms: _140  and  _141
REMARK   61  A    between atoms: _140  and  _143
REMARK   62  A    between atoms: _143  and  _144
REMARK   63  A    between atoms: _147  and  _149
REMARK   64  A    between atoms: _149  and  _150
REMARK   65  A    between atoms: _152  and  _154
REMARK   66  A    between atoms: _154  and  _155
REMARK   67  A    between atoms: _157  and  _159
REMARK   68  A    between atoms: _159  and  _160
REMARK   69  A    between atoms: _159  and  _162
REMARK   70  A    between atoms: _162  and  _163
REMARK   71  A    between atoms: _166  and  _168
REMARK   72  A    between atoms: _168  and  _169
REMARK   73  A    between atoms: _171  and  _173
REMARK   74  A    between atoms: _173  and  _174
REMARK   75  A    between atoms: _176  and  _178
REMARK   76  A    between atoms: _178  and  _179
REMARK   77  A    between atoms: _178  and  _181
REMARK   78  A    between atoms: _181  and  _182
REMARK   79  A    between atoms: _188  and  _190
REMARK   80  A    between atoms: _190  and  _191
REMARK   81  A    between atoms: _190  and  _193
REMARK   82  A    between atoms: _193  and  _194
REMARK   83  A    between atoms: _197  and  _199
REMARK   84  A    between atoms: _199  and  _200
REMARK   85  A    between atoms: _199  and  _202
REMARK   86  A    between atoms: _202  and  _203
REMARK   87  A    between atoms: _207  and  _208
REMARK   88  A    between atoms: _213  and  _215
REMARK   89  A    between atoms: _215  and  _216
REMARK   90  A    between atoms: _215  and  _218
REMARK   91  A    between atoms: _218  and  _219
REMARK   92  A    between atoms: _223  and  _224
REMARK   93  A    between atoms: _229  and  _231
REMARK   94  A    between atoms: _231  and  _232
REMARK   95  A    between atoms: _231  and  _234
REMARK   96  A    between atoms: _237  and  _239
REMARK   97  A    between atoms: _239  and  _240
REMARK   98  A    between atoms: _239  and  _242
REMARK   99  A    between atoms: _242  and  _243
REMARK  100  A    between atoms: _248  and  _250
REMARK  101  A    between atoms: _250  and  _251
REMARK  102  A    between atoms: _250  and  _253
REMARK  103  A    between atoms: _253  and  _254
REMARK  104  A    between atoms: _257  and  _259
REMARK  105  A    between atoms: _259  and  _260
REMARK  106  A    between atoms: _259  and  _262
REMARK  107  A    between atoms: _262  and  _263
REMARK  108  A    between atoms: _266  and  _268
REMARK  109  A    between atoms: _268  and  _269
REMARK  110  A    between atoms: _271  and  _273
REMARK  111  A    between atoms: _273  and  _274
REMARK  112  A    between atoms: _273  and  _276
REMARK  113  A    between atoms: _276  and  _277
REMARK  114  A    between atoms: _277  and  _278
REMARK  115  A    between atoms: _278  and  _279
REMARK  116  A    between atoms: _288  and  _290
REMARK  117  A    between atoms: _290  and  _291
REMARK  118  A    between atoms: _290  and  _293
REMARK  119  A    between atoms: _293  and  _294
REMARK  120  A    between atoms: _294  and  _295
REMARK  121  A    between atoms: _295  and  _296
REMARK  122  A    between atoms: _305  and  _307
REMARK  123  A    between atoms: _307  and  _308
REMARK  124  A    between atoms: _307  and  _310
REMARK  125  A    between atoms: _310  and  _311
REMARK  126  A    between atoms: _314  and  _316
REMARK  127  A    between atoms: _316  and  _317
REMARK  128  A    between atoms: _316  and  _319
REMARK  129  A    between atoms: _319  and  _320
REMARK  130  A    between atoms: _323  and  _325
REMARK  131  A    between atoms: _325  and  _326
REMARK  132  A    between atoms: _325  and  _328
REMARK  133  A    between atoms: _328  and  _329
REMARK  134  A    between atoms: _332  and  _334
REMARK  135  A    between atoms: _334  and  _335
REMARK  136  A    between atoms: _334  and  _337
REMARK  137  A    between atoms: _337  and  _338
REMARK  138  A    between atoms: _341  and  _343
REMARK  139  A    between atoms: _343  and  _344
REMARK  140  A    between atoms: _343  and  _346
REMARK  141  A    between atoms: _346  and  _347
REMARK  142  A    between atoms: _350  and  _352
REMARK  143  A    between atoms: _352  and  _353
REMARK  144  A    between atoms: _355  and  _357
REMARK  145  A    between atoms: _357  and  _358
REMARK  146  A    between atoms: _361  and  _363
REMARK  147  A    between atoms: _363  and  _364
REMARK  148  A    between atoms: _363  and  _366
REMARK  149  A    between atoms: _366  and  _367
REMARK  150  A    between atoms: _370  and  _372
REMARK  151  A    between atoms: _372  and  _373
REMARK  152  A    between atoms: _372  and  _375
REMARK  153  A    between atoms: _375  and  _376
REMARK  154  A    between atoms: _379  and  _381
REMARK  155  A    between atoms: _381  and  _382
REMARK  156  A    between atoms: _381  and  _384
REMARK  157  A    between atoms: _384  and  _385
REMARK  158  A    between atoms: _388  and  _390
REMARK  159  A    between atoms: _390  and  _391
REMARK  160  A    between atoms: _390  and  _393
REMARK  161  A    between atoms: _396  and  _398
REMARK  162  A    between atoms: _398  and  _399
REMARK  163  A    between atoms: _398  and  _401
REMARK  164  A    between atoms: _401  and  _402
REMARK  165  A    between atoms: _402  and  _403
REMARK  166  A    between atoms: _403  and  _404
REMARK  167  A    between atoms: _404  and  _405
REMARK  168  A    between atoms: _409  and  _411
REMARK  169  A    between atoms: _411  and  _412
REMARK  170  A    between atoms: _411  and  _414
REMARK  171  A    between atoms: _414  and  _415
REMARK  172  A    between atoms: _415  and  _416
REMARK  173  A    between atoms: _418  and  _420
REMARK  174  A    between atoms: _420  and  _421
REMARK  175  A    between atoms: _420  and  _423
REMARK  176  A    between atoms: _423  and  _424
REMARK  177  A    between atoms: _427  and  _429
REMARK  178  A    between atoms: _429  and  _430
REMARK  179  A    between atoms: _432  and  _434
REMARK  180  A    between atoms: _434  and  _435
REMARK  181  A    between atoms: _437  and  _439
REMARK  182  A    between atoms: _439  and  _440
REMARK  183  A    between atoms: _439  and  _442
REMARK  184  A    between atoms: _442  and  _443
REMARK  185  A    between atoms: _446  and  _448
REMARK  186  A    between atoms: _448  and  _449
REMARK  187  A    between atoms: _451  and  _453
REMARK  188  A    between atoms: _453  and  _454
REMARK  189  A    between atoms: _456  and  _458
REMARK  190  A    between atoms: _458  and  _459
REMARK  191  A    between atoms: _458  and  _461
REMARK  192  A    between atoms: _461  and  _462
REMARK  193  A    between atoms: _468  and  _470
REMARK  194  A    between atoms: _470  and  _471
REMARK  195  A    between atoms: _470  and  _473
REMARK  196  A    between atoms: _473  and  _474
REMARK  197  A    between atoms: _477  and  _479
REMARK  198  A    between atoms: _479  and  _480
REMARK  199  A    between atoms: _479  and  _482
REMARK  200  A    between atoms: _482  and  _483
REMARK  201  A    between atoms: _487  and  _488
REMARK  202  A    between atoms: _493  and  _495
REMARK  203  A    between atoms: _495  and  _496
REMARK  204  A    between atoms: _495  and  _498
REMARK  205  A    between atoms: _498  and  _499
REMARK  206  A    between atoms: _503  and  _504
REMARK  207  A    between atoms: _509  and  _511
REMARK  208  A    between atoms: _511  and  _512
REMARK  209  A    between atoms: _511  and  _514
REMARK  210  A    between atoms: _517  and  _519
REMARK  211  A    between atoms: _519  and  _520
REMARK  212  A    between atoms: _519  and  _522
REMARK  213  A    between atoms: _522  and  _523
REMARK  214  A    between atoms: _528  and  _530
REMARK  215  A    between atoms: _530  and  _531
REMARK  216  A    between atoms: _530  and  _533
REMARK  217  A    between atoms: _533  and  _534
REMARK  218  A    between atoms: _537  and  _539
REMARK  219  A    between atoms: _539  and  _540
REMARK  220  A    between atoms: _539  and  _542
REMARK  221  A    between atoms: _542  and  _543
REMARK  222  A    between atoms: _546  and  _548
REMARK  223  A    between atoms: _548  and  _549
REMARK  224  A    between atoms: _551  and  _553
REMARK  225  A    between atoms: _553  and  _554
REMARK  226  A    between atoms: _553  and  _556
REMARK  227  A    between atoms: _556  and  _557
REMARK  228  A    between atoms: _557  and  _558
REMARK  229  A    between atoms: _558  and  _559
REMARK                            x       y       z     vdW  Elec       q    Type
REMARK                         _______ _______ _______ _____ _____    ______ ____
ROOT
ATOM      1  C   ASN A   5      14.502   3.056  15.077  0.00  0.00    +0.241 C 
ATOM      2  N   ILE A   6      14.308   1.900  15.671  0.00  0.00    -0.297 N 
ATOM      3  H   ILE A   6      14.918   1.088  15.448  0.00  0.00    +0.150 HD
ATOM      4  O   ASN A   5      13.842   4.048  15.359  0.00  0.00    -0.273 OA
ENDROOT
BRANCH   2   5
ATOM      5  CA  ILE A   6      13.226   1.763  16.650  0.00  0.00    +0.149 C 
BRANCH   5   6
ATOM      6  C   ILE A   6      13.765   1.468  18.026  0.00  0.00    +0.241 C 
ATOM      7  N   ILE A   7      13.490   2.365  18.976  0.00  0.00    -0.297 N 
ATOM      8  H   ILE A   7      13.083   3.292  18.738  0.00  0.00    +0.150 HD
ATOM      9  O   ILE A   6      14.399   0.446  18.220  0.00  0.00    -0.273 OA
BRANCH   7  10
ATOM     10  CA  ILE A   7      13.782   1.997  20.374  0.00  0.00    +0.149 C 
BRANCH  10  11
ATOM     11  C   ILE A   7      12.559   1.366  21.064  0.00  0.00    +0.241 C 
ATOM     12  N   GLY A   8      12.736   0.095  21.423  0.00  0.00    -0.295 N 
ATOM     13  H   GLY A   8      13.662  -0.351  21.266  0.00  0.00    +0.150 HD
ATOM     14  O   ILE A   7      11.521   1.975  21.238  0.00  0.00    -0.273 OA
BRANCH  12  15
ATOM     15  CA  GLY A   8      11.655  -0.693  22.035  0.00  0.00    +0.176 C 
BRANCH  15  16
ATOM     16  C   GLY A   8      11.687  -0.782  23.561  0.00  0.00    +0.243 C 
ATOM     17  O   GLY A   8      12.553  -0.236  24.237  0.00  0.00    -0.273 OA
ATOM     18  N   ARG A   9      10.714  -1.511  24.098  0.00  0.00    -0.298 N 
ATOM     19  H   ARG A   9      10.070  -2.052  23.487  0.00  0.00    +0.150 HD
BRANCH  18  20
ATOM     20  CA  ARG A   9      10.549  -1.551  25.572  0.00  0.00    +0.137 C 
BRANCH  20  21
ATOM     21  C   ARG A   9      11.695  -2.096  26.398  0.00  0.00    +0.227 C 
ATOM     22  O   ARG A   9      11.975  -1.663  27.500  0.00  0.00    -0.286 OA
ENDBRANCH  20  21
BRANCH  20  23
ATOM     23  CB  ARG A   9       9.282  -2.303  25.945  0.00  0.00    +0.031 C 
BRANCH  23  24
ATOM     24  CG  ARG A   9       7.970  -1.692  25.446  0.00  0.00    +0.045 C 
BRANCH  24  25
ATOM     25  CD  ARG A   9       6.792  -2.361  26.153  0.00  0.00    +0.174 C 
BRANCH  25  26
ATOM     26  NE  ARG A   9       6.655  -3.767  25.778  0.00  0.00    -0.265 N 
ATOM     27  CZ  ARG A   9       7.160  -4.803  26.472  0.00  0.00    +0.342 C 
ATOM     28  NH2 ARG A   9       7.716  -4.600  27.675  0.00  0.00    -0.292 N 
ATOM     29 HH21 ARG A   9       8.106  -5.402  28.210  0.00  0.00    +0.255 HD
ATOM     30 HH22 ARG A   9       7.758  -3.640  28.073  0.00  0.00    +0.255 HD
ATOM     31  NH1 ARG A   9       7.142  -6.014  25.909  0.00  0.00    -0.292 N 
ATOM     32 HH11 ARG A   9       7.526  -6.832  26.423  0.00  0.00    +0.255 HD
ATOM     33 HH12 ARG A   9       6.744  -6.139  24.956  0.00  0.00    +0.255 HD
ATOM     34  HE  ARG A   9       6.127  -3.983  24.908  0.00  0.00    +0.259 HD
ENDBRANCH  25  26
ENDBRANCH  24  25
ENDBRANCH  23  24
ENDBRANCH  20  23
ENDBRANCH  18  20
ENDBRANCH  15  16
ENDBRANCH  12  15
ENDBRANCH  10  11
BRANCH  10  35
ATOM     35  CB  ILE A   7      14.308   3.220  21.180  0.00  0.00    +0.027 C 
ATOM     36  CG2 ILE A   7      14.674   2.806  22.607  0.00  0.00    +0.002 C 
BRANCH  35  37
ATOM     37  CG1 ILE A   7      15.504   3.925  20.537  0.00  0.00    +0.002 C 
ATOM     38  CD1 ILE A   7      16.644   2.964  20.192  0.00  0.00    +0.000 C 
ENDBRANCH  35  37
ENDBRANCH  10  35
ENDBRANCH   7  10
ENDBRANCH   5   6
BRANCH   5  39
ATOM     39  CB  ILE A   6      12.312   0.624  16.219  0.00  0.00    +0.027 C 
ATOM     40  CG2 ILE A   6      11.273   0.244  17.281  0.00  0.00    +0.002 C 
BRANCH  39  41
ATOM     41  CG1 ILE A   6      11.594   0.991  14.929  0.00  0.00    +0.002 C 
ATOM     42  CD1 ILE A   6      11.084  -0.230  14.166  0.00  0.00    +0.000 C 
ENDBRANCH  39  41
ENDBRANCH   5  39
ENDBRANCH   2   5
BRANCH   1  43
ATOM     43  CA  ASN A   5      15.586   3.036  13.963  0.00  0.00    +0.158 C 
BRANCH  43  45
ATOM     44  C   VAL A   4      14.248   2.876  12.004  0.00  0.00    +0.241 C 
ATOM     45  N   ASN A   5      15.109   3.603  12.692  0.00  0.00    -0.297 N 
ATOM     46  H   ASN A   5      15.434   4.531  12.352  0.00  0.00    +0.150 HD
ATOM     47  O   VAL A   4      14.041   1.705  12.273  0.00  0.00    -0.273 OA
BRANCH  44  48
ATOM     48  CA  VAL A   4      13.543   3.565  10.829  0.00  0.00    +0.149 C 
BRANCH  48  50
ATOM     49  C   PRO A   3      13.734   3.058   8.448  0.00  0.00    +0.241 C 
ATOM     50  N   VAL A   4      13.358   2.675   9.673  0.00  0.00    -0.297 N 
ATOM     51  H   VAL A   4      12.930   1.737   9.810  0.00  0.00    +0.150 HD
ATOM     52  O   PRO A   3      14.331   4.110   8.232  0.00  0.00    -0.273 OA
BRANCH  49  59
ATOM     53  C   THR A   2      14.495   0.058   8.157  0.00  0.00    +0.246 C 
ATOM     54  O   THR A   2      15.568   0.635   8.034  0.00  0.00    -0.273 OA
ATOM     55  N   PRO A   3      13.344   0.639   7.785  0.00  0.00    -0.272 N 
ATOM     56  CD  PRO A   3      12.026   0.018   7.745  0.00  0.00    +0.094 C 
ATOM     57  CG  PRO A   3      11.191   0.976   6.904  0.00  0.00    +0.024 C 
ATOM     58  CB  PRO A   3      11.842   2.328   7.095  0.00  0.00    +0.031 C 
ATOM     59  CA  PRO A   3      13.317   2.058   7.371  0.00  0.00    +0.152 C 
BRANCH  53  60
ATOM     60  CA  THR A   2      14.426  -1.363   8.758  0.00  0.00    +0.176 C 
BRANCH  60  62
ATOM     61  C   PRO A   1      15.555  -2.870   7.198  0.00  0.00    +0.239 C 
ATOM     62  N   THR A   2      15.541  -2.285   8.387  0.00  0.00    -0.295 N 
ATOM     63  H   THR A   2      16.309  -2.468   9.064  0.00  0.00    +0.150 HD
ATOM     64  O   PRO A   1      14.622  -2.754   6.424  0.00  0.00    -0.274 OA
BRANCH  61  69
ATOM     65  N   PRO A   1      17.318  -4.646   7.804  0.00  0.00    -0.210 NA
ATOM     66  CD  PRO A   1      17.111  -6.051   7.391  0.00  0.00    +0.089 C 
ATOM     67  CG  PRO A   1      16.154  -5.909   6.212  0.00  0.00    +0.021 C 
ATOM     68  CB  PRO A   1      16.565  -4.559   5.603  0.00  0.00    +0.028 C 
ATOM     69  CA  PRO A   1      16.812  -3.653   6.819  0.00  0.00    +0.149 C 
ENDBRANCH  61  69
ENDBRANCH  60  62
BRANCH  60  70
ATOM     70  CB  THR A   2      14.337  -1.279  10.327  0.00  0.00    +0.137 C 
ATOM     71  CG2 THR A   2      15.604  -0.740  10.965  0.00  0.00    +0.034 C 
BRANCH  70  72
ATOM     72  OG1 THR A   2      13.228  -0.471  10.752  0.00  0.00    -0.382 OA
ATOM     73  HG1 THR A   2      13.203  -0.441  11.741  0.00  0.00    +0.210 HD
ENDBRANCH  70  72
ENDBRANCH  60  70
ENDBRANCH  53  60
ENDBRANCH  49  59
ENDBRANCH  48  50
BRANCH  48  74
ATOM     74  CB  VAL A   4      12.124   4.086  11.154  0.00  0.00    +0.027 C 
ATOM     75  CG2 VAL A   4      12.120   5.147  12.224  0.00  0.00    +0.002 C 
ATOM     76  CG1 VAL A   4      11.130   2.994  11.488  0.00  0.00    +0.002 C 
ENDBRANCH  48  74
ENDBRANCH  44  48
ENDBRANCH  43  45
BRANCH  43  77
ATOM     77  CB  ASN A   5      16.795   3.818  14.469  0.00  0.00    +0.114 C 
BRANCH  77  78
ATOM     78  CG  ASN A   5      17.986   3.683  13.562  0.00  0.00    +0.222 C 
ATOM     79  OD1 ASN A   5      18.460   2.636  13.223  0.00  0.00    -0.275 OA
ATOM     80  ND2 ASN A   5      18.506   4.793  13.158  0.00  0.00    -0.329 N 
ATOM     81 HD21 ASN A   5      18.092   5.700  13.454  0.00  0.00    +0.145 HD
ATOM     82 HD22 ASN A   5      19.339   4.781  12.536  0.00  0.00    +0.145 HD
ENDBRANCH  77  78
ENDBRANCH  43  77
ENDBRANCH   1  43
TORSDOF 29
REMARK  Name = ../refined-set-2016/1hvi/1hvi_pocket.pdb
REMARK  229 active torsions:
REMARK  status: ('A' for Active; 'I' for Inactive)
REMARK    1  A    between atoms: _1  and  _3
REMARK    2  A    between atoms: _3  and  _4
REMARK    3  A    between atoms: _3  and  _6
REMARK    4  A    between atoms: _6  and  _7
REMARK    5  A    between atoms: _7  and  _8
REMARK    6  A    between atoms: _8  and  _9
REMARK    7  A    between atoms: _19  and  _20
REMARK    8  A    between atoms: _25  and  _27
REMARK    9  A    between atoms: _27  and  _28
REMARK   10  A    between atoms: _27  and  _30
REMARK   11  A    between atoms: _30  and  _31
REMARK   12  A    between atoms: _34  and  _36
REMARK   13  A    between atoms: _36  and  _37
REMARK   14  A    between atoms: _36  and  _39
REMARK   15  A    between atoms: _39  and  _40
REMARK   16  A    between atoms: _43  and  _45
REMARK   17  A    between atoms: _45  and  _46
REMARK   18  A    between atoms: _45  and  _48
REMARK   19  A    between atoms: _48  and  _49
REMARK   20  A    between atoms: _52  and  _54
REMARK   21  A    between atoms: _54  and  _55
REMARK   22  A    between atoms: _54  and  _57
REMARK   23  A    between atoms: _57  and  _58
REMARK   24  A    between atoms: _61  and  _63
REMARK   25  A    between atoms: _63  and  _64
REMARK   26  A    between atoms: _63  and  _66
REMARK   27  A    between atoms: _66  and  _67
REMARK   28  A    between atoms: _70  and  _72
REMARK   29  A    between atoms: _72  and  _73
REMARK   30  A    between atoms: _75  and  _77
REMARK   31  A    between atoms: _77  and  _78
REMARK   32  A    between atoms: _81  and  _83
REMARK   33  A    between atoms: _83  and  _84
REMARK   34  A    between atoms: _83  and  _86
REMARK   35  A    between atoms: _86  and  _87
REMARK   36  A    between atoms: _90  and  _92
REMARK   37  A    between atoms: _92  and  _93
REMARK   38  A    between atoms: _92  and  _95
REMARK   39  A    between atoms: _95  and  _96
REMARK   40  A    between atoms: _99  and  _101
REMARK   41  A    between atoms: _101  and  _102
REMARK   42  A    between atoms: _101  and  _104
REMARK   43  A    between atoms: _104  and  _105
REMARK   44  A    between atoms: _108  and  _110
REMARK   45  A    between atoms: _110  and  _111
REMARK   46  A    between atoms: _110  and  _113
REMARK   47  A    between atoms: _116  and  _118
REMARK   48  A    between atoms: _118  and  _119
REMARK   49  A    between atoms: _118  and  _121
REMARK   50  A    between atoms: _121  and  _122
REMARK   51  A    between atoms: _122  and  _123
REMARK   52  A    between atoms: _123  and  _124
REMARK   53  A    between atoms: _124  and  _125
REMARK   54  A    between atoms: _129  and  _131
REMARK   55  A    between atoms: _131  and  _132
REMARK   56  A    between atoms: _131  and  _134
REMARK   57  A    between atoms: _134  and  _135
REMARK   58  A    between atoms: _135  and  _136
REMARK   59  A    between atoms: _138  and  _140
REMARK   60  A    between atoms: _140  and  _141
REMARK   61  A    between atoms: _140  and  _143
REMARK   62  A    between atoms: _143  and  _144
REMARK   63  A    between atoms: _147  and  _149
REMARK   64  A    between atoms: _149  and  _150
REMARK   65  A    between atoms: _152  and  _154
REMARK   66  A    between atoms: _154  and  _155
REMARK   67  A    between atoms: _157  and  _159
REMARK   68  A    between atoms: _159  and  _160
REMARK   69  A    between atoms: _159  and  _162
REMARK   70  A    between atoms: _162  and  _163
REMARK   71  A    between atoms: _166  and  _168
REMARK   72  A    between atoms: _168  and  _169
REMARK   73  A    between atoms: _171  and  _173
REMARK   74  A    between atoms: _173  and  _174
REMARK   75  A    between atoms: _176  and  _178
REMARK   76  A    between atoms: _178  and  _179
REMARK   77  A    between atoms: _178  and  _181
REMARK   78  A    between atoms: _181  and  _182
REMARK   79  A    between atoms: _188  and  _190
REMARK   80  A    between atoms: _190  and  _191
REMARK   81  A    between atoms: _190  and  _193
REMARK   82  A    between atoms: _193  and  _194
REMARK   83  A    between atoms: _197  and  _199
REMARK   84  A    between atoms: _199  and  _200
REMARK   85  A    between atoms: _199  and  _202
REMARK   86  A    between atoms: _202  and  _203
REMARK   87  A    between atoms: _207  and  _208
REMARK   88  A    between atoms: _213  and  _215
REMARK   89  A    between atoms: _215  and  _216
REMARK   90  A    between atoms: _215  and  _218
REMARK   91  A    between atoms: _218  and  _219
REMARK   92  A    between atoms: _223  and  _224
REMARK   93  A    between atoms: _229  and  _231
REMARK   94  A    between atoms: _231  and  _232
REMARK   95  A    between atoms: _231  and  _234
REMARK   96  A    between atoms: _237  and  _239
REMARK   97  A    between atoms: _239  and  _240
REMARK   98  A    between atoms: _239  and  _242
REMARK   99  A    between atoms: _242  and  _243
REMARK  100  A    between atoms: _248  and  _250
REMARK  101  A    between atoms: _250  and  _251
REMARK  102  A    between atoms: _250  and  _253
REMARK  103  A    between atoms: _253  and  _254
REMARK  104  A    between atoms: _257  and  _259
REMARK  105  A    between atoms: _259  and  _260
REMARK  106  A    between atoms: _259  and  _262
REMARK  107  A    between atoms: _262  and  _263
REMARK  108  A    between atoms: _266  and  _268
REMARK  109  A    between atoms: _268  and  _269
REMARK  110  A    between atoms: _271  and  _273
REMARK  111  A    between atoms: _273  and  _274
REMARK  112  A    between atoms: _273  and  _276
REMARK  113  A    between atoms: _276  and  _277
REMARK  114  A    between atoms: _277  and  _278
REMARK  115  A    between atoms: _278  and  _279
REMARK  116  A    between atoms: _288  and  _290
REMARK  117  A    between atoms: _290  and  _291
REMARK  118  A    between atoms: _290  and  _293
REMARK  119  A    between atoms: _293  and  _294
REMARK  120  A    between atoms: _294  and  _295
REMARK  121  A    between atoms: _295  and  _296
REMARK  122  A    between atoms: _305  and  _307
REMARK  123  A    between atoms: _307  and  _308
REMARK  124  A    between atoms: _307  and  _310
REMARK  125  A    between atoms: _310  and  _311
REMARK  126  A    between atoms: _314  and  _316
REMARK  127  A    between atoms: _316  and  _317
REMARK  128  A    between atoms: _316  and  _319
REMARK  129  A    between atoms: _319  and  _320
REMARK  130  A    between atoms: _323  and  _325
REMARK  131  A    between atoms: _325  and  _326
REMARK  132  A    between atoms: _325  and  _328
REMARK  133  A    between atoms: _328  and  _329
REMARK  134  A    between atoms: _332  and  _334
REMARK  135  A    between atoms: _334  and  _335
REMARK  136  A    between atoms: _334  and  _337
REMARK  137  A    between atoms: _337  and  _338
REMARK  138  A    between atoms: _341  and  _343
REMARK  139  A    between atoms: _343  and  _344
REMARK  140  A    between atoms: _343  and  _346
REMARK  141  A    between atoms: _346  and  _347
REMARK  142  A    between atoms: _350  and  _352
REMARK  143  A    between atoms: _352  and  _353
REMARK  144  A    between atoms: _355  and  _357
REMARK  145  A    between atoms: _357  and  _358
REMARK  146  A    between atoms: _361  and  _363
REMARK  147  A    between atoms: _363  and  _364
REMARK  148  A    between atoms: _363  and  _366
REMARK  149  A    between atoms: _366  and  _367
REMARK  150  A    between atoms: _370  and  _372
REMARK  151  A    between atoms: _372  and  _373
REMARK  152  A    between atoms: _372  and  _375
REMARK  153  A    between atoms: _375  and  _376
REMARK  154  A    between atoms: _379  and  _381
REMARK  155  A    between atoms: _381  and  _382
REMARK  156  A    between atoms: _381  and  _384
REMARK  157  A    between atoms: _384  and  _385
REMARK  158  A    between atoms: _388  and  _390
REMARK  159  A    between atoms: _390  and  _391
REMARK  160  A    between atoms: _390  and  _393
REMARK  161  A    between atoms: _396  and  _398
REMARK  162  A    between atoms: _398  and  _399
REMARK  163  A    between atoms: _398  and  _401
REMARK  164  A    between atoms: _401  and  _402
REMARK  165  A    between atoms: _402  and  _403
REMARK  166  A    between atoms: _403  and  _404
REMARK  167  A    between atoms: _404  and  _405
REMARK  168  A    between atoms: _409  and  _411
REMARK  169  A    between atoms: _411  and  _412
REMARK  170  A    between atoms: _411  and  _414
REMARK  171  A    between atoms: _414  and  _415
REMARK  172  A    between atoms: _415  and  _416
REMARK  173  A    between atoms: _418  and  _420
REMARK  174  A    between atoms: _420  and  _421
REMARK  175  A    between atoms: _420  and  _423
REMARK  176  A    between atoms: _423  and  _424
REMARK  177  A    between atoms: _427  and  _429
REMARK  178  A    between atoms: _429  and  _430
REMARK  179  A    between atoms: _432  and  _434
REMARK  180  A    between atoms: _434  and  _435
REMARK  181  A    between atoms: _437  and  _439
REMARK  182  A    between atoms: _439  and  _440
REMARK  183  A    between atoms: _439  and  _442
REMARK  184  A    between atoms: _442  and  _443
REMARK  185  A    between atoms: _446  and  _448
REMARK  186  A    between atoms: _448  and  _449
REMARK  187  A    between atoms: _451  and  _453
REMARK  188  A    between atoms: _453  and  _454
REMARK  189  A    between atoms: _456  and  _458
REMARK  190  A    between atoms: _458  and  _459
REMARK  191  A    between atoms: _458  and  _461
REMARK  192  A    between atoms: _461  and  _462
REMARK  193  A    between atoms: _468  and  _470
REMARK  194  A    between atoms: _470  and  _471
REMARK  195  A    between atoms: _470  and  _473
REMARK  196  A    between atoms: _473  and  _474
REMARK  197  A    between atoms: _477  and  _479
REMARK  198  A    between atoms: _479  and  _480
REMARK  199  A    between atoms: _479  and  _482
REMARK  200  A    between atoms: _482  and  _483
REMARK  201  A    between atoms: _487  and  _488
REMARK  202  A    between atoms: _493  and  _495
REMARK  203  A    between atoms: _495  and  _496
REMARK  204  A    between atoms: _495  and  _498
REMARK  205  A    between atoms: _498  and  _499
REMARK  206  A    between atoms: _503  and  _504
REMARK  207  A    between atoms: _509  and  _511
REMARK  208  A    between atoms: _511  and  _512
REMARK  209  A    between atoms: _511  and  _514
REMARK  210  A    between atoms: _517  and  _519
REMARK  211  A    between atoms: _519  and  _520
REMARK  212  A    between atoms: _519  and  _522
REMARK  213  A    between atoms: _522  and  _523
REMARK  214  A    between atoms: _528  and  _530
REMARK  215  A    between atoms: _530  and  _531
REMARK  216  A    between atoms: _530  and  _533
REMARK  217  A    between atoms: _533  and  _534
REMARK  218  A    between atoms: _537  and  _539
REMARK  219  A    between atoms: _539  and  _540
REMARK  220  A    between atoms: _539  and  _542
REMARK  221  A    between atoms: _542  and  _543
REMARK  222  A    between atoms: _546  and  _548
REMARK  223  A    between atoms: _548  and  _549
REMARK  224  A    between atoms: _551  and  _553
REMARK  225  A    between atoms: _553  and  _554
REMARK  226  A    between atoms: _553  and  _556
REMARK  227  A    between atoms: _556  and  _557
REMARK  228  A    between atoms: _557  and  _558
REMARK  229  A    between atoms: _558  and  _559
REMARK                            x       y       z     vdW  Elec       q    Type
REMARK                         _______ _______ _______ _____ _____    ______ ____
ROOT
ATOM      1  O   HOH     1       5.245  -3.205  11.955  0.00  0.00    +0.000 OA
ENDROOT
TORSDOF 0
